version 2
run General-0-20180612-18:04:11-14451
attr configname General
attr datetime 20180612-18:04:11
attr experiment General
attr inifile omnetpp.ini
attr iterationvars ""
attr iterationvarsf ""
attr measurement ""
attr network Network
attr processid 14451
attr repetition 0
attr replication #0
attr resultdir results
attr runnumber 0
attr seedset 0
param Network.queue0.serviceTime exponential(1)
param Network.queue1.serviceTime exponential(1)
param Network.nodeTx.gen.generationInterval exponential(0.1)
param Network.nodeTx.gen.packetByteSize 12500
param Network.nodeTx.traTx.serviceTime exponential(0.001)
param Network.nodeRx.traRx.serviceTime exponential(0.001)
param Network.queue0.bufferSize 20
param Network.queue1.bufferSize 20
param Network.nodeRx.traRx.bufferSize 20
param Network.nodeTx.traTx.bufferSize 2000000

vector 0 Network.nodeTx.gen "Packages sent by generator" ETV
vector 1 Network.nodeTx.traTx "" ETV
vector 2 Network.queue0 SizeVector ETV
vector 3 Network.nodeRx.traRx "" ETV
vector 4 Network.nodeRx.traRx "Packages received by Rx" ETV
vector 5 Network.nodeRx.sink Delay ETV
vector 6 Network.nodeRx.sink "Packets received by sink" ETV
vector 7 Network.queue1 SizeVector ETV
0	0	0	0
0	1	0.079587450457	1
0	4	0.169443489305	2
0	14	0.29503656511	3
0	36	0.480996986317	4
0	42	0.573319299464	5
0	59	0.768473833052	6
0	71	0.84719394705	7
0	88	1.03509035247	8
0	100	1.090195201137	9
0	112	1.187895843776	10
0	119	1.291711773842	11
0	132	1.340224590214	12
0	134	1.397776509902	13
0	136	1.433092423816	14
0	171	1.65544486602	15
0	173	1.661283332929	16
0	208	1.992774560922	17
0	211	2.024610175006	18
0	222	2.072970385501	19
0	234	2.137915020326	20
0	252	2.294804632088	21
0	265	2.46202575212	22
0	278	2.537293163451	23
0	291	2.602681420173	24
0	293	2.686624705463	25
0	306	2.736511906365	26
0	341	2.99633731495	27
0	356	3.177174241377	28
0	359	3.184542776924	29
0	371	3.225700576548	30
0	373	3.23481667916	31
0	385	3.339277929991	32
0	387	3.341320488831	33
0	394	3.387245302557	34
0	407	3.565994068901	35
0	453	3.881011061769	36
0	466	4.031589487633	37
0	468	4.046712572999	38
0	492	4.250743998793	39
0	516	4.454833220384	40
0	548	4.839355407298	41
0	551	4.903526324566	42
0	561	5.064050280272	43
0	576	5.225450487761	44
0	589	5.287343433724	45
0	594	5.360839875843	46
0	608	5.512493473242	47
0	630	5.626087367413	48
0	635	5.638674808357	49
0	649	5.766197578579	50
0	662	5.868340766014	51
0	675	5.955572885518	52
0	677	5.971045853568	53
0	690	6.048129319415	54
0	725	6.337571367214	55
0	740	6.479707835223	56
0	753	6.553490564399	57
0	755	6.564685180462	58
0	760	6.618241752485	59
0	774	6.682411222688	60
0	776	6.713139257903	61
0	778	6.733759586106	62
0	802	6.882585068681	63
0	815	7.016114087143	64
0	817	7.077022329461	65
0	830	7.101427178535	66
0	843	7.185460649096	67
0	845	7.199988451825	68
0	847	7.201885308745	69
0	849	7.241062389813	70
0	862	7.33720048372	71
0	864	7.353414132665	72
0	877	7.448113800382	73
0	879	7.473257993589	74
0	892	7.569212791326	75
0	905	7.618068496257	76
0	940	7.905859998385	77
0	964	8.138751335806	78
0	977	8.253265231276	79
0	990	8.313039838958	80
0	992	8.357591688463	81
0	1005	8.452541146813	82
0	1018	8.509994387487	83
0	1042	8.742629493656	84
0	1055	8.862240273602	85
0	1057	8.87269639618	86
0	1059	8.878907925227	87
0	1105	9.228929293672	88
0	1118	9.338820540427	89
0	1131	9.444703953576	90
0	1144	9.555763698145	91
0	1146	9.574506304747	92
0	1159	9.598126975355	93
0	1161	9.642467378217	94
0	1163	9.65627024706	95
0	1187	9.795174516039	96
0	1189	9.833070712467	97
0	1202	9.926676868444	98
0	1204	9.971887074466	99
0	1217	10.011198330196	100
0	1230	10.095641109549	101
0	1232	10.09955942519	102
0	1234	10.157291856271	103
0	1247	10.257878956788	104
0	1304	10.703328641406	105
0	1339	11.022623305611	106
0	1341	11.033386816427	107
0	1354	11.139169457762	108
0	1356	11.16259960964	109
0	1369	11.263401534182	110
0	1375	11.280992888725	111
0	1439	11.817002923749	112
0	1452	11.922877195258	113
0	1465	12.010068780621	114
0	1467	12.039276833948	115
0	1480	12.092783301656	116
0	1482	12.155577459755	117
0	1495	12.219955559915	118
0	1497	12.247983260763	119
0	1510	12.34566966817	120
0	1512	12.362982413785	121
0	1525	12.404232536777	122
0	1527	12.415928077756	123
0	1540	12.528244907909	124
0	1553	12.635052127624	125
0	1555	12.673207711961	126
0	1561	12.688078938886	127
0	1581	12.838742472213	128
0	1583	12.860630531864	129
0	1618	13.159349521049	130
0	1631	13.205350916823	131
0	1644	13.313977854911	132
0	1661	13.486011020683	133
0	1663	13.487377478526	134
0	1672	13.497591966678	135
0	1685	13.595102160094	136
0	1698	13.777084052022	137
0	1715	13.889065488597	138
0	1724	13.899168966128	139
0	1759	14.256527803362	140
0	1805	14.63143094932	141
0	1829	14.841963079399	142
0	1842	14.905196739039	143
0	1844	14.976455098372	144
0	1890	15.352647826822	145
0	1892	15.358380519464	146
0	1905	15.451228369154	147
0	1918	15.511223057818	148
0	1931	15.645647585033	149
0	1933	15.647666597848	150
0	1935	15.651664227754	151
0	1948	15.709952066641	152
0	1950	15.743193090737	153
0	1996	16.132350103022	154
0	1998	16.145155779553	155
0	2004	16.189697725745	156
0	2013	16.224815334683	157
0	2019	16.290379963119	158
0	2028	16.303018826762	159
0	2041	16.419706179417	160
0	2043	16.457976274303	161
0	2067	16.670399994003	162
0	2080	16.723888431579	163
0	2104	16.974279609888	164
0	2110	16.980909350036	165
0	2119	17.005348894844	166
0	2132	17.123267847551	167
0	2145	17.206552199158	168
0	2151	17.290161952355	169
0	2175	17.490486004606	170
0	2184	17.521327488616	171
0	2190	17.592452282338	172
0	2199	17.666528177383	173
0	2234	17.915086413081	174
0	2236	17.924951443923	175
0	2260	18.178981894719	176
0	2273	18.264771458826	177
0	2275	18.27344850706	178
0	2310	18.538374099928	179
0	2312	18.570908141481	180
0	2325	18.609264162891	181
0	2327	18.610204237957	182
0	2340	18.720288828966	183
0	2364	18.905021594066	184
0	2366	18.919154665422	185
0	2379	19.02333273084	186
0	2392	19.149326111851	187
0	2416	19.333454359	188
0	2418	19.367619775703	189
0	2424	19.398371548079	190
0	2433	19.418606591936	191
0	2435	19.469326604262	192
0	2448	19.557639508458	193
0	2461	19.638119248438	194
0	2463	19.640150494318	195
0	2465	19.658175719516	196
0	2489	19.834749826757	197
0	2495	19.880922916361	198
0	2497	19.88139357041	199
0	2499	19.897227721033	200
0	2519	20.01049113523	201
0	2525	20.094799438445	202
0	2534	20.12627160453	203
0	2547	20.247922469874	204
0	2564	20.380798257249	205
0	2573	20.414832931073	206
0	2608	20.742347248844	207
0	2614	20.799137664192	208
0	2623	20.827739761443	209
0	2636	20.968842202372	210
0	2649	21.054681499155	211
0	2662	21.105115879814	212
0	2668	21.194774966893	213
0	2699	21.421148324479	214
0	2712	21.506070405635	215
0	2725	21.607936278637	216
0	2727	21.633178277926	217
0	2751	21.855328967773	218
0	2786	22.160557133461	219
0	2799	22.274517929814	220
0	2812	22.333780332559	221
0	2818	22.393418271992	222
0	2842	22.580764259978	223
0	2884	22.965064918302	224
0	2901	23.085288775027	225
0	2903	23.097641439763	226
0	2912	23.13294345309	227
0	2925	23.278625308946	228
0	2949	23.446717529401	229
0	2955	23.499789779063	230
0	2964	23.550291653838	231
0	2977	23.662819855522	232
0	3001	23.875769795129	233
0	3007	23.904510842736	234
0	3020	23.991564425369	235
0	3029	24.02913830961	236
0	3053	24.242621354608	237
0	3088	24.579058399913	238
0	3105	24.696996693277	239
0	3118	24.785782834321	240
0	3138	24.914973761201	241
0	3151	25.022757249615	242
0	3157	25.092337195705	243
0	3166	25.168523972835	244
0	3203	25.481070808601	245
0	3206	25.507276532769	246
0	3225	25.610556233834	247
0	3227	25.66078731366	248
0	3234	25.715926912673	249
0	3247	25.812372269222	250
0	3260	25.905612557263	251
0	3262	25.970023028095	252
0	3264	25.97196100623	253
0	3277	26.035473777793	254
0	3279	26.07136649938	255
0	3303	26.197270851106	256
0	3316	26.305202870972	257
0	3318	26.33916934423	258
0	3320	26.3734293067	259
0	3333	26.421792875359	260
0	3346	26.518030380936	261
0	3359	26.65632830159	262
0	3372	26.712324408597	263
0	3396	26.923069169092	264
0	3398	26.937626566937	265
0	3400	26.948481276786	266
0	3413	26.983903690011	267
0	3415	26.993595965469	268
0	3417	27.077984812728	269
0	3430	27.121687614105	270
0	3443	27.211060521936	271
0	3456	27.291315720512	272
0	3458	27.376723694076	273
0	3460	27.380144035912	274
0	3484	27.48604497445	275
0	3519	27.833298522378	276
0	3532	27.938883483244	277
0	3534	27.977596492459	278
0	3547	28.034057542571	279
0	3549	28.059065692069	280
0	3584	28.285929091338	281
0	3586	28.301158453863	282
0	3588	28.346975742259	283
0	3590	28.357207803744	284
0	3603	28.414453958887	285
0	3649	28.828234934938	286
0	3673	29.050726400661	287
0	3675	29.080882991983	288
0	3699	29.244972749776	289
0	3712	29.321980435731	290
0	3725	29.443682385265	291
0	3738	29.503089735097	292
0	3740	29.51365099946	293
0	3742	29.52413918302	294
0	3766	29.776067396028	295
0	3779	29.819501961622	296
0	3792	29.944762714113	297
0	3805	30.008108975885	298
0	3877	30.684648027879	299
0	3897	30.868621306387	300
0	3903	30.884808315058	301
0	3934	31.119826044033	302
0	3958	31.322416925743	303
0	3961	31.326245217031	304
0	3963	31.343977774546	305
0	3974	31.414969567268	306
0	3986	31.51056620966	307
0	3993	31.528820069848	308
0	3995	31.542038440809	309
0	4008	31.69302078637	310
0	4032	31.881413675029	311
0	4056	32.081612324582	312
0	4080	32.246284234715	313
0	4082	32.299284522529	314
0	4095	32.383472618702	315
0	4097	32.398551719721	316
0	4110	32.45083872273	317
0	4112	32.454217401285	318
0	4114	32.461384939716	319
0	4160	32.866369623596	320
0	4173	32.985913480224	321
0	4186	33.032640736865	322
0	4188	33.09307064405	323
0	4201	33.147556356864	324
0	4214	33.275589777245	325
0	4216	33.280781032463	326
0	4240	33.482058306084	327
0	4253	33.527549490563	328
0	4288	33.898545549753	329
0	4290	33.900222326352	330
0	4314	34.093880050101	331
0	4316	34.120112981018	332
0	4318	34.12129130421	333
0	4342	34.266070712409	334
0	4344	34.310695994461	335
0	4379	34.599157169671	336
0	4403	34.730087006073	337
0	4418	34.868716141275	338
0	4421	34.887545638797	339
0	4430	34.929006893063	340
0	4438	35.002620003062	341
0	4452	35.069866054745	342
0	4454	35.075453060034	343
0	4456	35.116850952301	344
0	4458	35.139164873111	345
0	4460	35.158947823857	346
0	4462	35.160817370899	347
0	4475	35.179569266019	348
0	4488	35.33741053823	349
0	4501	35.399670272628	350
0	4503	35.425020843142	351
0	4527	35.632623949186	352
0	4540	35.674989659322	353
0	4564	35.963444088163	354
0	4599	36.226665974418	355
0	4612	36.32037984619	356
0	4625	36.442259526524	357
0	4638	36.533055929256	358
0	4640	36.536291609721	359
0	4664	36.689374732348	360
0	4666	36.707370466503	361
0	4679	36.776690443457	362
0	4692	36.873838659266	363
0	4694	36.879006949846	364
0	4696	36.965099313514	365
0	4720	37.085196404168	366
0	4722	37.112363211202	367
0	4779	37.600276500001	368
0	4807	37.872411325592	369
0	4816	37.903508106089	370
0	4829	37.998691076843	371
0	4842	38.112350726369	372
0	4855	38.189058691826	373
0	4879	38.388775888575	374
0	4892	38.477913746266	375
0	4905	38.616881452644	376
0	4918	38.74785998978	377
0	4958	39.081653423165	378
0	4961	39.119042072755	379
0	4966	39.199840078095	380
0	4968	39.250626590364	381
0	4970	39.274501877649	382
0	4977	39.298054334991	383
0	4979	39.323214196302	384
0	4981	39.34381740115	385
0	4983	39.36850332803	386
0	5018	39.65741088722	387
0	5031	39.741708764761	388
0	5044	39.876243508084	389
0	5057	39.936411406736	390
0	5070	40.0038358637	391
0	5105	40.355283731754	392
0	5107	40.381085008148	393
0	5131	40.495198798434	394
0	5133	40.524549563626	395
0	5135	40.533464992626	396
0	5137	40.539443088918	397
0	5139	40.54525032513	398
0	5152	40.602240081661	399
0	5154	40.66915145403	400
0	5167	40.706518433469	401
0	5191	40.919385442922	402
0	5204	41.038571253287	403
0	5250	41.41324071467	404
0	5252	41.460682343703	405
0	5265	41.55682630086	406
0	5267	41.576623074393	407
0	5280	41.654820646481	408
0	5282	41.657319481812	409
0	5306	41.8501554955	410
0	5308	41.857117262607	411
0	5332	41.993310435038	412
0	5345	42.107064285592	413
0	5347	42.172187358784	414
0	5360	42.232645480618	415
0	5373	42.345681035209	416
0	5386	42.422593015319	417
0	5399	42.51599904858	418
0	5423	42.742983050158	419
0	5436	42.868403377167	420
0	5493	43.332368629804	421
0	5506	43.395761631743	422
0	5508	43.420210733947	423
0	5510	43.481094025321	424
0	5534	43.589884468682	425
0	5558	43.826776285766	426
0	5560	43.857336775947	427
0	5562	43.872096379236	428
0	5564	43.874183101097	429
0	5577	43.900218242252	430
0	5590	44.042256587811	431
0	5614	44.255612916558	432
0	5627	44.294181685963	433
0	5651	44.528966062106	434
0	5653	44.577329900855	435
0	5666	44.681114908404	436
0	5679	44.769865101252	437
0	5692	44.809122404071	438
0	5709	44.986936737754	439
0	5718	45.060273505071	440
0	5731	45.159423934361	441
0	5733	45.159429469551	442
0	5757	45.365511593639	443
0	5770	45.402887923021	444
0	5772	45.434845388508	445
0	5778	45.490262471413	446
0	5798	45.650234415597	447
0	5822	45.866810783684	448
0	5828	45.887345560558	449
0	5848	46.001251325625	450
0	5883	46.306569792584	451
0	5885	46.367474253855	452
0	5902	46.483785582198	453
0	5911	46.549835890173	454
0	5913	46.57410773954	455
0	5937	46.729574033321	456
0	5972	47.024022061063	457
0	5975	47.050086074001	458
0	5989	47.181336873298	459
0	6014	47.393611538692	460
0	6017	47.422906684541	461
0	6028	47.460549619693	462
0	6030	47.484541971637	463
0	6069	47.800251525779	464
0	6072	47.873274292303	465
0	6086	47.937093152862	466
0	6088	47.939692927381	467
0	6102	48.064028005176	468
0	6104	48.087280507014	469
0	6117	48.103967971137	470
0	6119	48.159251808202	471
0	6132	48.290349045018	472
0	6145	48.337216692616	473
0	6158	48.441137256274	474
0	6171	48.50342018725	475
0	6173	48.527612151727	476
0	6175	48.560133753525	477
0	6177	48.580769552885	478
0	6190	48.669148118488	479
0	6214	48.833955735804	480
0	6238	49.033359655932	481
0	6251	49.170827651312	482
0	6253	49.183330910304	483
0	6266	49.295676960259	484
0	6279	49.368529344532	485
0	6285	49.400949255881	486
0	6294	49.415113459361	487
0	6296	49.434339603445	488
0	6309	49.560520870794	489
0	6322	49.682420805312	490
0	6335	49.732848798637	491
0	6337	49.795052490545	492
0	6350	49.87839031461	493
0	6374	50.061916654904	494
0	6376	50.082162531274	495
0	6389	50.105086963795	496
0	6391	50.120734540833	497
0	6393	50.138761970791	498
0	6406	50.205716029877	499
0	6408	50.219050092204	500
0	6410	50.262995631253	501
0	6423	50.391038066651	502
0	6458	50.673101661493	503
0	6460	50.676194290649	504
0	6484	50.821149768292	505
0	6497	50.958584069734	506
0	6510	51.096680379301	507
0	6523	51.106397147138	508
0	6547	51.340446343204	509
0	6549	51.364966152468	510
0	6551	51.373677010794	511
0	6575	51.512008657409	512
0	6577	51.592347833676	513
0	6601	51.723910459506	514
0	6614	51.811731967378	515
0	6616	51.816400741742	516
0	6651	52.143250381824	517
0	6653	52.16671596675	518
0	6659	52.201267925121	519
0	6668	52.235083396605	520
0	6670	52.262636190309	521
0	6683	52.375728038228	522
0	6685	52.386296755638	523
0	6687	52.392808042117	524
0	6689	52.394464651559	525
0	6702	52.475578753782	526
0	6737	52.740834605334	527
0	6739	52.741762907772	528
0	6752	52.852603883193	529
0	6776	53.031602843641	530
0	6789	53.185385715089	531
0	6839	53.600982824645	532
0	6848	53.634073812763	533
0	6861	53.755642860099	534
0	6874	53.843930914595	535
0	6876	53.863975134104	536
0	6878	53.870584335173	537
0	6891	53.942408983184	538
0	6897	54.008889758139	539
0	6906	54.095746331286	540
0	6952	54.475148709595	541
0	6976	54.630049877511	542
0	7000	54.839205534773	543
0	7013	54.9324667203	544
0	7015	54.973739706973	545
0	7017	54.998381289194	546
0	7063	55.324273386912	547
0	7065	55.385001315774	548
0	7071	55.411359027058	549
0	7102	55.622447904496	550
0	7137	55.920667972043	551
0	7139	55.988448172249	552
0	7174	56.272112191587	553
0	7187	56.397835891144	554
0	7211	56.558381767451	555
0	7224	56.624966016115	556
0	7237	56.724512380452	557
0	7250	56.847800426755	558
0	7274	57.055176573065	559
0	7287	57.12412002685	560
0	7289	57.158795357229	561
0	7313	57.344938521527	562
0	7337	57.533948691337	563
0	7339	57.555558312996	564
0	7352	57.651759505655	565
0	7365	57.80018375392	566
0	7371	57.801516278403	567
0	7413	58.167482011479	568
0	7419	58.210135592683	569
0	7443	58.408410483143	570
0	7453	58.424443892592	571
0	7467	58.576050785575	572
0	7507	58.976845751062	573
0	7523	59.397031693687	574
0	7526	59.462111427923	575
0	7536	59.602178997619	576
0	7539	59.670973345465	577
0	7541	59.671378977597	578
0	7555	59.773397686392	579
0	7569	59.804797476198	580
0	7571	59.850776607976	581
0	7584	59.903623330806	582
0	7586	59.918345834537	583
0	7588	59.974246601536	584
0	7612	60.14690993951	585
0	7614	60.182269597036	586
0	7626	60.203322925856	587
0	7629	60.254594390119	588
0	7642	60.326198921918	589
0	7644	60.339056945646	590
0	7646	60.364458083481	591
0	7692	60.759221410237	592
0	7694	60.769518246609	593
0	7707	60.821626128717	594
0	7731	61.019815162828	595
0	7737	61.104028793112	596
0	7779	61.46492289361	597
0	7792	61.507022223415	598
0	7827	61.831018520105	599
0	7840	61.98654795614	600
0	7873	62.223586714201	601
0	7876	62.276582872128	602
0	7893	62.425325847562	603
0	7896	62.469840781503	604
0	7898	62.510359069737	605
0	7912	62.561358153122	606
0	7914	62.569816102298	607
0	7916	62.605745492811	608
0	7930	62.658042258177	609
0	7943	62.807305474596	610
0	7956	62.83373252101	611
0	7980	63.094389701242	612
0	7982	63.108602252381	613
0	7995	63.147952493493	614
0	7997	63.153443230748	615
0	8032	63.458929208649	616
0	8045	63.588243994529	617
0	8047	63.589648653653	618
0	8049	63.590797978674	619
0	8062	63.667040347095	620
0	8075	63.814260762894	621
0	8088	63.850584984784	622
0	8090	63.86647830275	623
0	8114	64.080916849201	624
0	8116	64.089203076493	625
0	8118	64.118054347528	626
0	8124	64.127441802256	627
0	8144	64.240579679016	628
0	8157	64.352068421207	629
0	8170	64.518364999274	630
0	8183	64.546517401521	631
0	8185	64.603106855684	632
0	8198	64.657672627161	633
0	8211	64.797159536287	634
0	8224	64.878661369377	635
0	8248	65.055623351698	636
0	8272	65.252629108257	637
0	8274	65.300276966517	638
0	8296	65.430121530077	639
0	8300	65.440274938471	640
0	8302	65.471790941343	641
0	8304	65.501381128668	642
0	8306	65.51547791711	643
0	8319	65.605110837612	644
0	8321	65.610807490859	645
0	8334	65.675524961263	646
0	8336	65.711421093101	647
0	8349	65.7783513803	648
0	8351	65.808748536223	649
0	8364	65.870092445182	650
0	8375	65.930998890714	651
0	8379	66.005357209892	652
0	8392	66.120331348667	653
0	8405	66.178673725771	654
0	8418	66.297623350904	655
0	8442	66.489107576668	656
0	8444	66.522447910506	657
0	8457	66.57926495888	658
0	8463	66.627056757631	659
0	8483	66.802428222133	660
0	8485	66.822413775925	661
0	8498	66.893614582487	662
0	8522	67.04898913269	663
0	8524	67.058022857098	664
0	8526	67.063875646993	665
0	8539	67.171768337843	666
0	8552	67.291169674903	667
0	8554	67.314311772099	668
0	8578	67.465133295262	669
0	8602	67.653045138683	670
0	8615	67.803286418054	671
0	8628	67.917655480113	672
0	8641	67.947687988142	673
0	8643	67.967334176732	674
0	8645	68.014144822055	675
0	8647	68.021386733066	676
0	8660	68.109962797669	677
0	8662	68.110936338603	678
0	8675	68.142794723391	679
0	8699	68.365403122335	680
0	8701	68.411742125089	681
0	8707	68.426067427227	682
0	8716	68.448014243316	683
0	8729	68.599060403438	684
0	8742	68.660652331816	685
0	8766	68.919897192694	686
0	8768	68.924460997644	687
0	8792	69.050050346078	688
0	8805	69.210892130987	689
0	8818	69.278387228352	690
0	8820	69.286395113946	691
0	8833	69.349788326595	692
0	8835	69.422942860508	693
0	8870	69.637252830551	694
0	8872	69.673897959734	695
0	8885	69.740921147392	696
0	8891	69.827087896572	697
0	8900	69.880628331681	698
0	8935	70.201109214642	699
0	8937	70.220238819232	700
0	8950	70.323963328642	701
0	8963	70.388454177759	702
0	8965	70.392054460734	703
0	8989	70.545139302628	704
0	8991	70.60142182281	705
0	9004	70.682711658929	706
0	9017	70.754050087209	707
0	9019	70.771469603246	708
0	9032	70.848294937433	709
0	9034	70.863823495983	710
0	9047	70.978203033895	711
0	9060	71.083031944391	712
0	9062	71.11554903144	713
0	9075	71.19303326939	714
0	9077	71.206828592583	715
0	9090	71.246234349778	716
0	9092	71.296103583065	717
0	9094	71.312004784745	718
0	9129	71.6252877337	719
0	9142	71.642707605358	720
0	9144	71.663426123583	721
0	9146	71.677284805725	722
0	9170	71.911608798734	723
0	9183	71.998102609677	724
0	9196	72.076586311636	725
0	9198	72.086266058867	726
0	9211	72.147314343367	727
0	9235	72.388715986418	728
0	9259	72.60245815546	729
0	9261	72.611119854905	730
0	9274	72.672480275879	731
0	9291	72.833613475791	732
0	9311	72.962409673299	733
0	9335	73.172073300651	734
0	9337	73.222993549338	735
0	9343	73.232805501601	736
0	9374	73.467192465681	737
0	9376	73.522758356997	738
0	9393	73.639884726492	739
0	9402	73.703982081018	740
0	9415	73.824253459401	741
0	9428	73.911050457603	742
0	9441	73.950758552605	743
0	9454	74.076722669667	744
0	9467	74.218101002621	745
0	9469	74.220845212664	746
0	9482	74.321922128974	747
0	9506	74.453374338782	748
0	9508	74.480820690982	749
0	9525	74.62647671214	750
0	9527	74.643976216962	751
0	9534	74.644957660602	752
0	9549	74.804113272881	753
0	9555	74.840971566842	754
0	9597	75.160797064519	755
0	9599	75.18730637466	756
0	9612	75.248580919146	757
0	9614	75.318583482758	758
0	9627	75.407983623026	759
0	9662	75.715291145305	760
0	9686	75.91028883649	761
0	9699	75.991890692886	762
0	9712	76.052996449015	763
0	9714	76.063251638315	764
0	9749	76.366645895555	765
0	9762	76.463846984661	766
0	9775	76.549590494922	767
0	9798	76.748384440406	768
0	9812	76.920291371585	769
0	9818	76.937445234322	770
0	9849	77.176963213261	771
0	9906	77.665313112296	772
0	9923	77.834336607772	773
0	9925	77.843219846037	774
0	9934	77.860585502358	775
0	9936	77.870507655006	776
0	9949	77.969635605582	777
0	9962	78.07004072297	778
0	9964	78.120862668375	779
0	9999	78.419040634108	780
0	10004	78.425517203387	781
0	10036	78.701577648955	782
0	10049	78.756748010214	783
0	10051	78.816056169947	784
0	10057	78.845989008189	785
0	10077	78.976072750935	786
0	10101	79.165145666378	787
0	10114	79.300717517763	788
0	10116	79.304104703287	789
0	10122	79.340775218666	790
0	10164	79.660151405934	791
0	10166	79.672908763314	792
0	10168	79.716816461873	793
0	10181	79.775493342541	794
0	10183	79.819608823614	795
0	10196	79.869329752248	796
0	10198	79.870976080646	797
0	10204	79.946872558071	798
0	10213	79.967357784786	799
0	10237	80.154021831804	800
0	10239	80.205314530987	801
0	10252	80.282160788726	802
0	10280	80.547079614949	803
0	10300	80.661107502641	804
0	10302	80.671600777374	805
0	10315	80.76555097596	806
0	10350	81.056142936326	807
0	10352	81.06651001999	808
0	10376	81.270139438717	809
0	10378	81.27979356662	810
0	10384	81.340336944784	811
0	10386	81.346096236466	812
0	10395	81.385652796506	813
0	10397	81.394703543521	814
0	10399	81.421197037285	815
0	10405	81.448269476359	816
0	10418	81.543581730186	817
0	10442	81.726535945772	818
0	10444	81.729899337864	819
0	10453	81.803791339858	820
0	10455	81.805364252235	821
0	10468	81.877328742004	822
0	10474	81.933329579337	823
0	10487	82.03826379593	824
0	10489	82.045313990766	825
0	10498	82.123969899955	826
0	10504	82.152997241467	827
0	10506	82.156297639973	828
0	10515	82.181292721638	829
0	10528	82.268078908627	830
0	10530	82.2972735158	831
0	10547	82.444715738278	832
0	10556	82.458763309974	833
0	10558	82.505960118751	834
0	10560	82.507171043257	835
0	10573	82.574706630274	836
0	10575	82.586978131006	837
0	10621	82.986734478678	838
0	10634	83.083093748307	839
0	10636	83.111151340925	840
0	10682	83.477107552771	841
0	10684	83.523999685498	842
0	10741	83.988027685093	843
0	10743	83.992701175267	844
0	10749	84.045304254843	845
0	10758	84.082420426923	846
0	10760	84.100208102709	847
0	10784	84.278301570198	848
0	10797	84.380123328079	849
0	10814	84.544641670786	850
0	10823	84.612036015208	851
0	10836	84.714207849949	852
0	10893	85.168990235135	853
0	10895	85.214893027884	854
0	10897	85.221646443572	855
0	10903	85.259152637884	856
0	10923	85.412046524955	857
0	10947	85.573912631597	858
0	10949	85.607936353558	859
0	10951	85.615241519273	860
0	10957	85.642872038566	861
0	10970	85.757938297859	862
0	10990	85.866558628975	863
0	10992	85.914479898423	864
0	10998	85.942724569619	865
0	11011	86.043217900525	866
0	11024	86.152837156626	867
0	11055	86.414401249868	868
0	11068	86.487239007171	869
0	11092	86.679612864238	870
0	11098	86.734793076402	871
0	11107	86.803644465206	872
0	11120	86.884542434719	873
0	11126	86.940375113645	874
0	11135	86.974209725515	875
0	11152	87.147121689283	876
0	11172	87.269734910506	877
0	11185	87.403762506704	878
0	11191	87.457352386238	879
0	11200	87.516618128032	880
0	11206	87.561332118292	881
0	11248	87.908396626346	882
0	11272	88.084805365565	883
0	11278	88.129929245414	884
0	11309	88.388911859964	885
0	11315	88.439584181354	886
0	11317	88.44429410846	887
0	11337	88.578496082578	888
0	11339	88.604974309912	889
0	11345	88.664591499052	890
0	11354	88.70744225947	891
0	11389	88.984356707754	892
0	11406	89.15307853663	893
0	11415	89.182815889421	894
0	11461	89.606117469054	895
0	11467	89.654205291484	896
0	11509	90.001490862074	897
0	11522	90.120939856425	898
0	11550	90.356273333232	899
0	11581	90.583644049901	900
0	11583	90.618820788444	901
0	11589	90.631724638762	902
0	11642	91.114696663559	903
0	11648	91.142343935213	904
0	11652	91.171034844751	905
0	11659	91.196946070339	906
0	11661	91.208140524453	907
0	11674	91.275378814657	908
0	11709	91.576875641876	909
0	11733	91.798997060196	910
0	11739	91.825578715098	911
0	11741	91.869912154698	912
0	11761	91.986955727699	913
0	11767	92.035607641675	914
0	11769	92.041620478588	915
0	11800	92.290183587023	916
0	11813	92.421379895131	917
0	11819	92.433463034757	918
0	11843	92.646933274211	919
0	11856	92.746663166628	920
0	11865	92.778468621147	921
0	11867	92.792718915712	922
0	11873	92.840370497809	923
0	11882	92.887250066973	924
0	11888	92.934137882536	925
0	11890	92.973354011498	926
0	11910	93.111499919483	927
0	11926	93.225479460149	928
0	11929	93.252635039317	929
0	11949	93.411370762286	930
0	11955	93.430227234711	931
0	11964	93.500331785644	932
0	11970	93.559986777332	933
0	11979	93.595118905486	934
0	11985	93.631426789504	935
0	12009	93.848549377639	936
0	12033	94.031302004421	937
0	12035	94.074668489958	938
0	12044	94.101815486601	939
0	12061	94.23590565906	940
0	12070	94.305699413943	941
0	12083	94.386748728661	942
0	12111	94.672491263443	943
0	12120	94.694995512829	944
0	12133	94.795507077686	945
0	12139	94.875029297817	946
0	12163	95.076987748139	947
0	12176	95.150310282007	948
0	12211	95.432001455003	949
0	12213	95.47489263858	950
0	12233	95.613828489275	951
0	12235	95.616321298848	952
0	12252	95.736577033319	953
0	12254	95.752691291202	954
0	12296	96.096785695961	955
0	12298	96.110925007234	956
0	12359	96.629437949537	957
0	12372	96.75250983464	958
0	12381	96.812625299278	959
0	12398	96.936093286883	960
0	12400	96.943443924625	961
0	12413	97.03805409875	962
0	12415	97.072697431499	963
0	12435	97.184143254671	964
0	12437	97.200672555903	965
0	12443	97.260005612729	966
0	12452	97.314045882489	967
0	12469	97.433144027829	968
0	12471	97.447218543372	969
0	12480	97.494752510336	970
0	12493	97.587416370366	971
0	12495	97.597955983357	972
0	12501	97.646213504873	973
0	12536	97.968745113245	974
0	12567	98.194492792321	975
0	12569	98.202011973237	976
0	12608	98.545574312485	977
0	12610	98.54752324178	978
0	12623	98.62668415124	979
0	12665	99.015775160281	980
0	12671	99.047909190568	981
0	12673	99.063982194625	982
0	12686	99.153687496036	983
0	12688	99.18362279633	984
0	12719	99.41069380707	985
0	12725	99.434968350806	986
0	12734	99.487179481247	987
0	12740	99.57390868313	988
0	12753	99.654222360322	989
0	12799	100.026163191412	990
0	12801	100.057860929401	991
0	12810	100.089745034242	992
0	12816	100.150523510654	993
0	12858	100.501429865754	994
0	12864	100.55279842708	995
0	12866	100.555381231523	996
0	12868	100.583938123573	997
0	12899	100.802902795029	998
0	12905	100.873397727167	999
0	12925	100.996706599889	1000
0	12931	101.033868175372	1001
0	12933	101.066409847088	1002
0	12942	101.113096281444	1003
0	12970	101.338345568451	1004
0	12979	101.412783394591	1005
0	12981	101.415471456542	1006
0	12998	101.554339183929	1007
0	13011	101.652592018201	1008
0	13020	101.693164652588	1009
0	13026	101.733144179836	1010
0	13057	101.991055492915	1011
0	13096	102.332547983158	1012
0	13120	102.530829241185	1013
0	13122	102.549290828476	1014
0	13124	102.554282388719	1015
0	13148	102.786034994976	1016
0	13157	102.815290055095	1017
0	13163	102.855328208241	1018
0	13172	102.914411730281	1019
0	13200	103.134444662325	1020
0	13202	103.145496249985	1021
0	13211	103.217332833506	1022
0	13217	103.260176936385	1023
0	13230	103.331640355123	1024
0	13243	103.466385237492	1025
0	13252	103.515296078554	1026
0	13269	103.629400411979	1027
0	13278	103.704921593755	1028
0	13291	103.802309452903	1029
0	13322	104.091821214605	1030
0	13339	104.215791022667	1031
0	13367	104.439155007777	1032
0	13369	104.462086724941	1033
0	13382	104.575132444772	1034
0	13391	104.616941610666	1035
0	13404	104.718836928774	1036
0	13421	104.831612972131	1037
0	13430	104.911100255738	1038
0	13454	105.122490937203	1039
0	13460	105.154330238809	1040
0	13473	105.232785908501	1041
0	13475	105.248834319237	1042
0	13477	105.282060381595	1043
0	13501	105.476065202583	1044
0	13503	105.479135379884	1045
0	13516	105.579936733932	1046
0	13536	105.70384038467	1047
0	13542	105.739456962826	1048
0	13544	105.740248497477	1049
0	13553	105.801907806329	1050
0	13559	105.848537508973	1051
0	13561	105.851020829748	1052
0	13574	105.926637454527	1053
0	13583	106.008296723412	1054
0	13611	106.263544372767	1055
0	13620	106.308353169605	1056
0	13622	106.317728708366	1057
0	13628	106.387586808974	1058
0	13641	106.439664695461	1059
0	13643	106.456344271273	1060
0	13645	106.45880563568	1061
0	13654	106.514232483021	1062
0	13660	106.556180415368	1063
0	13684	106.792809441753	1064
0	13697	106.890156696118	1065
0	13699	106.891011497983	1066
0	13708	106.923732536116	1067
0	13747	107.270671919994	1068
0	13749	107.294212506644	1069
0	13769	107.411619520323	1070
0	13771	107.423915777012	1071
0	13777	107.434387004355	1072
0	13786	107.520458475106	1073
0	13792	107.554675944268	1074
0	13805	107.673508860297	1075
0	13818	107.75096053909	1076
0	13831	107.86242163939	1077
0	13844	107.991210663301	1078
0	13879	108.288531497249	1079
0	13892	108.337775634887	1080
0	13894	108.338046322345	1081
0	13896	108.363804808979	1082
0	13909	108.467989255461	1083
0	13922	108.528660496385	1084
0	13931	108.620387676076	1085
0	13970	108.97823784866	1086
0	13983	109.067090719893	1087
0	14007	109.246558031293	1088
0	14042	109.575622914319	1089
0	14073	109.82188734126	1090
0	14075	109.823588903633	1091
0	14092	109.933635756681	1092
0	14105	110.052867334103	1093
0	14114	110.110968199649	1094
0	14131	110.278996439657	1095
0	14144	110.394543912532	1096
0	14157	110.465839560445	1097
0	14170	110.570422089724	1098
0	14179	110.611063376399	1099
0	14181	110.614016557515	1100
0	14198	110.770482212585	1101
0	14229	111.02247108197	1102
0	14235	111.032701260071	1103
0	14244	111.110889702381	1104
0	14250	111.169235719612	1105
0	14307	111.641875239298	1106
0	14316	111.715262236	1107
0	14322	111.763567538426	1108
0	14335	111.881970312061	1109
0	14359	112.046305635582	1110
0	14361	112.055834083869	1111
0	14370	112.117639321583	1112
0	14376	112.143485246455	1113
0	14396	112.318830058283	1114
0	14402	112.371644457355	1115
0	14415	112.449105830991	1116
0	14428	112.546735033288	1117
0	14452	112.765006422217	1118
0	14476	112.983008466933	1119
0	14500	113.195123912618	1120
0	14513	113.291573888794	1121
0	14526	113.331368728259	1122
0	14528	113.345693598638	1123
0	14530	113.397516383448	1124
0	14576	113.791662251911	1125
0	14589	113.870330563457	1126
0	14613	114.075735811843	1127
0	14626	114.172940708691	1128
0	14639	114.242801065386	1129
0	14641	114.29050084048	1130
0	14676	114.546052612146	1131
0	14685	114.624169491145	1132
0	14691	114.702122994028	1133
0	14700	114.715010858632	1134
0	14728	114.971804121502	1135
0	14741	115.085965673854	1136
0	14765	115.263101005786	1137
0	14767	115.296945119068	1138
0	14813	115.642046132004	1139
0	14815	115.646438855417	1140
0	14839	115.898740601552	1141
0	14848	115.911081548703	1142
0	14850	115.914751455731	1143
0	14856	115.926004450369	1144
0	14858	115.945214007984	1145
0	14860	115.98326510284	1146
0	14873	116.032552979677	1147
0	14875	116.060860223262	1148
0	14910	116.364813382275	1149
0	14923	116.447545974635	1150
0	14925	116.483217599902	1151
0	14956	116.720041205202	1152
0	14962	116.737532231212	1153
0	14971	116.824307745506	1154
0	14999	117.041731036219	1155
0	15012	117.132845617026	1156
0	15014	117.191975895583	1157
0	15023	117.21916247944	1158
0	15051	117.457624013763	1159
0	15064	117.544585549847	1160
0	15066	117.562048329495	1161
0	15068	117.577815534778	1162
0	15081	117.686025723226	1163
0	15094	117.726917476151	1164
0	15096	117.784946434949	1165
0	15109	117.88317025339	1166
0	15111	117.891127268899	1167
0	15124	117.93596019956	1168
0	15137	118.055185423768	1169
0	15161	118.297090563184	1170
0	15173	118.325512537537	1171
0	15198	118.536290573377	1172
0	15200	118.540332731142	1173
0	15202	118.597276342529	1174
0	15204	118.603457957394	1175
0	15217	118.676358629532	1176
0	15219	118.682660973958	1177
0	15232	118.747033454543	1178
0	15256	118.985340281862	1179
0	15258	119.005718820083	1180
0	15282	119.140381548937	1181
0	15284	119.197432147745	1182
0	15319	119.425771551187	1183
0	15321	119.446541879808	1184
0	15334	119.558193737164	1185
0	15347	119.683793297041	1186
0	15360	119.759070262245	1187
0	15373	119.833095481386	1188
0	15375	119.869400196825	1189
0	15377	119.908049615029	1190
0	15456	120.527640626901	1191
0	15458	120.527951062582	1192
0	15460	120.572922399377	1193
0	15473	120.663879469864	1194
0	15486	120.727489815301	1195
0	15499	120.83220904085	1196
0	15501	120.879729984729	1197
0	15503	120.88025029801	1198
0	15549	121.269114770287	1199
0	15591	121.620512652582	1200
0	15597	121.639708442777	1201
0	15610	121.748733001423	1202
0	15612	121.788480909415	1203
0	15621	121.82317379773	1204
0	15638	121.937226245226	1205
0	15640	121.959586151059	1206
0	15642	121.966115510624	1207
0	15677	122.226082835159	1208
0	15679	122.319540876794	1209
0	15692	122.356538794769	1210
0	15701	122.421479867448	1211
0	15707	122.473100212942	1212
0	15709	122.506507721248	1213
0	15722	122.606763962081	1214
0	15735	122.633999084716	1215
0	15759	122.855321807869	1216
0	15772	122.927582031623	1217
0	15774	122.984252227608	1218
0	15787	123.030127357873	1219
0	15811	123.293540497467	1220
0	15824	123.354516714753	1221
0	15837	123.444185298412	1222
0	15839	123.485355356199	1223
0	15852	123.54188088433	1224
0	15887	123.894196018453	1225
0	15900	123.984036255097	1226
0	15902	123.998358582245	1227
0	15915	124.042132527856	1228
0	15917	124.052314092054	1229
0	15930	124.159322341017	1230
0	15932	124.201389108257	1231
0	15945	124.307033207675	1232
0	15958	124.396443796488	1233
0	15982	124.568882985035	1234
0	15995	124.676522030977	1235
0	16008	124.728066785978	1236
0	16010	124.778693182686	1237
0	16012	124.782522062463	1238
0	16091	125.505868907743	1239
0	16137	125.923413268166	1240
0	16150	125.966783215206	1241
0	16156	126.026229816876	1242
0	16176	126.154030029793	1243
0	16211	126.431505491951	1244
0	16224	126.533001387788	1245
0	16237	126.644488073195	1246
0	16250	126.812181546494	1247
0	16263	126.84320115882	1248
0	16296	127.217116006624	1249
0	16306	127.300142071301	1250
0	16332	127.520682151681	1251
0	16355	127.835181906951	1252
0	16361	127.979812664167	1253
0	16364	127.991858490944	1254
0	16372	128.111673629728	1255
0	16381	128.143450563866	1256
0	16388	128.184322329289	1257
0	16390	128.1928844087	1258
0	16392	128.208864386743	1259
0	16405	128.353796573691	1260
0	16407	128.360264934206	1261
0	16409	128.362457672275	1262
0	16422	128.390151894808	1263
0	16424	128.404915083131	1264
0	16426	128.461528038301	1265
0	16439	128.49172353865	1266
0	16441	128.565537212905	1267
0	16465	128.770395528565	1268
0	16489	128.918712869369	1269
0	16491	128.938486046163	1270
0	16526	129.25727446339	1271
0	16539	129.314063232702	1272
0	16541	129.326542541928	1273
0	16543	129.365864270627	1274
0	16545	129.377181603866	1275
0	16558	129.464745483675	1276
0	16571	129.553830863864	1277
0	16606	129.829452171612	1278
0	16619	129.96625757375	1279
0	16654	130.248909970806	1280
0	16678	130.437396432226	1281
0	16680	130.442790127868	1282
0	16715	130.71741531489	1283
0	16728	130.808101625621	1284
0	16774	131.218095054888	1285
0	16799	131.440473336463	1286
0	16802	131.491522852733	1287
0	16819	131.643359767573	1288
0	16822	131.69121742468	1289
0	16824	131.714984011791	1290
0	16826	131.730978433126	1291
0	16852	131.875793045521	1292
0	16865	131.991290498878	1293
0	16867	132.012246947451	1294
0	16880	132.119180053288	1295
0	16915	132.348205775278	1296
0	16939	132.54630130489	1297
0	16942	132.547198443623	1298
0	16944	132.55743029158	1299
0	16946	132.56688696523	1300
0	16948	132.635758049626	1301
0	16962	132.732301629596	1302
0	16976	132.819309620633	1303
0	16989	132.867507541589	1304
0	16991	132.895156309999	1305
0	16993	132.905311187057	1306
0	16995	132.923826792406	1307
0	17041	133.343353654418	1308
0	17065	133.539665983374	1309
0	17100	133.766562892036	1310
0	17102	133.772594694414	1311
0	17104	133.804218404998	1312
0	17117	133.86782345211	1313
0	17119	133.93191499443	1314
0	17121	133.944226039922	1315
0	17134	134.009571365895	1316
0	17147	134.070646783382	1317
0	17149	134.141653817948	1318
0	17195	134.532667894913	1319
0	17241	134.874581545182	1320
0	17244	134.929695340013	1321
0	17246	134.940226781933	1322
0	17272	135.134805240325	1323
0	17274	135.138851035891	1324
0	17276	135.151329788127	1325
0	17289	135.21743776821	1326
0	17291	135.249080507329	1327
0	17304	135.310377234197	1328
0	17306	135.362093926904	1329
0	17319	135.388916236231	1330
0	17321	135.439967493825	1331
0	17323	135.446034923842	1332
0	17336	135.557321305003	1333
0	17338	135.570542464986	1334
0	17351	135.612811443793	1335
0	17375	135.807131499426	1336
0	17388	135.932226365492	1337
0	17401	135.983253505268	1338
0	17414	136.085193024075	1339
0	17416	136.133222205456	1340
0	17429	136.184165056478	1341
0	17431	136.18638692168	1342
0	17433	136.242908085165	1343
0	17446	136.289868888378	1344
0	17459	136.3851974815	1345
0	17472	136.493552300329	1346
0	17474	136.50081390614	1347
0	17487	136.5989923967	1348
0	17500	136.771818333997	1349
0	17535	137.017148918147	1350
0	17548	137.123113412468	1351
0	17561	137.234524886115	1352
0	17574	137.364112667765	1353
0	17587	137.403281121753	1354
0	17600	137.480267315334	1355
0	17602	137.518279218468	1356
0	17604	137.529986222401	1357
0	17628	137.70915165599	1358
0	17630	137.761077028478	1359
0	17654	137.910600140291	1360
0	17656	137.962582334779	1361
0	17669	137.995593004184	1362
0	17671	138.034312750908	1363
0	17684	138.159463646603	1364
0	17686	138.162504445979	1365
0	17699	138.244961618297	1366
0	17716	138.378618460029	1367
0	17725	138.429644375065	1368
0	17727	138.441273541742	1369
0	17740	138.516958973465	1370
0	17753	138.610177647522	1371
0	17755	138.619086243271	1372
0	17768	138.740561814128	1373
0	17781	138.850126801153	1374
0	17794	138.950854069992	1375
0	17796	138.953862349546	1376
0	17831	139.273628225287	1377
0	17866	139.493709912724	1378
0	17868	139.504613099086	1379
0	17881	139.619220902592	1380
0	17905	139.821087278585	1381
0	17929	140.043016830762	1382
0	17931	140.045979305992	1383
0	17933	140.04610013618	1384
0	17946	140.122654044407	1385
0	17981	140.399464050176	1386
0	17983	140.451256394683	1387
0	18018	140.76899945683	1388
0	18031	140.8432718318	1389
0	18055	141.002392058134	1390
0	18057	141.04782081584	1391
0	18114	141.531579560746	1392
0	18116	141.552721678244	1393
0	18129	141.596607095948	1394
0	18131	141.598537906467	1395
0	18155	141.787149417151	1396
0	18157	141.860161619177	1397
0	18181	142.007422905431	1398
0	18205	142.192431827418	1399
0	18218	142.319916972673	1400
0	18220	142.366632295319	1401
0	18233	142.466984734109	1402
0	18246	142.492198701752	1403
0	18248	142.528925518502	1404
0	18250	142.537321522505	1405
0	18263	142.614384628585	1406
0	18265	142.623301736812	1407
0	18267	142.655401502601	1408
0	18273	142.680426830641	1409
0	18275	142.681299620272	1410
0	18284	142.691837234335	1411
0	18286	142.694363346515	1412
0	18288	142.725157226073	1413
0	18290	142.740739144684	1414
0	18292	142.747583032222	1415
0	18305	142.819688272664	1416
0	18307	142.826473860469	1417
0	18309	142.851661338938	1418
0	18333	143.045647514897	1419
0	18346	143.091770092658	1420
0	18348	143.10945816327	1421
0	18350	143.115126551386	1422
0	18363	143.197152450647	1423
0	18387	143.439286115291	1424
0	18404	143.587767522696	1425
0	18435	143.804008016969	1426
0	18437	143.864963935053	1427
0	18472	144.09253593336	1428
0	18474	144.109184952752	1429
0	18476	144.149560243463	1430
0	18478	144.171824128667	1431
0	18502	144.296625951795	1432
0	18504	144.353362763762	1433
0	18517	144.409039844906	1434
0	18523	144.484167082273	1435
0	18532	144.520076650555	1436
0	18534	144.563068870829	1437
0	18536	144.570370125213	1438
0	18560	144.722457715976	1439
0	18566	144.777248959746	1440
0	18586	144.916287892469	1441
0	18588	144.965442428344	1442
0	18623	145.227462586032	1443
0	18625	145.244944786035	1444
0	18627	145.247882780763	1445
0	18635	145.290992963485	1446
0	18664	145.517033008223	1447
0	18666	145.527083560596	1448
0	18672	145.576935193787	1449
0	18696	145.781808993144	1450
0	18726	145.992488205732	1451
0	18740	146.102627813563	1452
0	18753	146.21999958635	1453
0	18755	146.241407805816	1454
0	18805	146.678407780959	1455
0	18836	146.928623579213	1456
0	18849	147.071036680777	1457
0	18862	147.157710787844	1458
0	18875	147.203052129677	1459
0	18877	147.263914065082	1460
0	18890	147.333441643181	1461
0	18903	147.43626217501	1462
0	18909	147.483485049874	1463
0	18918	147.512791399653	1464
0	18920	147.558190544328	1465
0	18933	147.638281412614	1466
0	18935	147.668514226419	1467
0	18941	147.682659436918	1468
0	18950	147.751171444712	1469
0	18952	147.773550321926	1470
0	18969	147.888038966873	1471
0	18978	147.960204841642	1472
0	18984	147.992686522107	1473
0	18993	148.002944448097	1474
0	18999	148.077258013528	1475
0	19019	148.268213515378	1476
0	19025	148.280699601162	1477
0	19034	148.331042212707	1478
0	19036	148.348459134818	1479
0	19042	148.374996130595	1480
0	19044	148.379789850553	1481
0	19053	148.467841694384	1482
0	19099	148.820965834433	1483
0	19112	148.958337760902	1484
0	19114	148.958724543221	1485
0	19127	149.052626403573	1486
0	19129	149.072298472436	1487
0	19142	149.158813378328	1488
0	19155	149.253712013006	1489
0	19157	149.272356976425	1490
0	19163	149.280844117529	1491
0	19176	149.39679571413	1492
0	19207	149.610415106762	1493
0	19246	149.986783186115	1494
0	19266	150.113944186347	1495
0	19279	150.207744997908	1496
0	19314	150.547038069372	1497
0	19320	150.586844169871	1498
0	19329	150.657697777415	1499
0	19353	150.819996779122	1500
0	19355	150.855721958649	1501
0	19379	151.036733059795	1502
0	19392	151.116472907378	1503
0	19394	151.170135115675	1504
0	19429	151.437237613026	1505
0	19435	151.490955986735	1506
0	19444	151.564511662229	1507
0	19479	151.84036779452	1508
0	19481	151.87145700083	1509
0	19498	151.999536633137	1510
0	19529	152.209418475994	1511
0	19531	152.212763951907	1512
0	19533	152.259272526282	1513
0	19546	152.314775698813	1514
0	19548	152.314914130074	1515
0	19550	152.324774080094	1516
0	19552	152.353234098493	1517
0	19598	152.737425728839	1518
0	19604	152.775732535547	1519
0	19613	152.861349151287	1520
0	19637	153.057090990511	1521
0	19650	153.160283060803	1522
0	19663	153.221624867415	1523
0	19665	153.266953314496	1524
0	19678	153.325757695664	1525
0	19691	153.435933887396	1526
0	19697	153.476896603404	1527
0	19706	153.561723284388	1528
0	19730	153.774316341382	1529
0	19754	153.92334125005	1530
0	19789	154.213432154168	1531
0	19813	154.443792841831	1532
0	19870	154.925262641804	1533
0	19876	154.977065547516	1534
0	19885	155.024344901987	1535
0	19909	155.25005361615	1536
0	19948	155.58862770644	1537
0	19950	155.59535740316	1538
0	19970	155.752321238621	1539
0	19983	155.867991167591	1540
0	20000	155.980596447361	1541
0	20002	156.006871988355	1542
0	20011	156.034961103905	1543
0	20024	156.112368308173	1544
0	20026	156.136761275159	1545
0	20043	156.285057211597	1546
0	20045	156.303215133363	1547
0	20065	156.440487533946	1548
0	20093	156.696566925423	1549
0	20113	156.824375554812	1550
0	20115	156.85920041823	1551
0	20128	156.925150698237	1552
0	20134	156.98549857748	1553
0	20136	157.007068561608	1554
0	20149	157.075182089418	1555
0	20151	157.098194666234	1556
0	20171	157.248779780542	1557
0	20184	157.325452318755	1558
0	20208	157.511392975997	1559
0	20210	157.568985273284	1560
0	20216	157.58395979411	1561
0	20258	157.952806991658	1562
0	20264	158.008477258068	1563
0	20273	158.044262525301	1564
0	20297	158.22932108996	1565
0	20299	158.237547346507	1566
0	20316	158.407940506949	1567
0	20336	158.537724163864	1568
0	20338	158.548528770551	1569
0	20384	158.919127834283	1570
0	20386	158.936133543162	1571
0	20403	159.088500571196	1572
0	20412	159.124769684817	1573
0	20414	159.153144695071	1574
0	20416	159.16097967518	1575
0	20418	159.16470428441	1576
0	20431	159.21998421776	1577
0	20433	159.272227142095	1578
0	20439	159.283613207826	1579
0	20463	159.493782566234	1580
0	20476	159.577765916373	1581
0	20485	159.634328208475	1582
0	20487	159.662638391374	1583
0	20493	159.69605793287	1584
0	20506	159.786799224864	1585
0	20537	160.060601554391	1586
0	20539	160.073104109275	1587
0	20563	160.221061623408	1588
0	20602	160.593549060817	1589
0	20615	160.687963186024	1590
0	20646	160.957616671416	1591
0	20648	160.95788473725	1592
0	20654	161.007609384234	1593
0	20689	161.275708893209	1594
0	20691	161.303439646102	1595
0	20704	161.415475554378	1596
0	20713	161.444296871169	1597
0	20715	161.46971733744	1598
0	20728	161.535764726868	1599
0	20730	161.538271185623	1600
0	20732	161.542352635658	1601
0	20734	161.543102270103	1602
0	20747	161.645185512008	1603
0	20775	161.907468064198	1604
0	20784	161.959944108605	1605
0	20801	162.078084648464	1606
0	20810	162.125470806363	1607
0	20823	162.247598824054	1608
0	20840	162.413338276121	1609
0	20853	162.503988403843	1610
0	20873	162.627443790821	1611
0	20879	162.704497522898	1612
0	20914	163.013137236787	1613
0	20923	163.073940399363	1614
0	20929	163.117317018314	1615
0	20942	163.208994405483	1616
0	20973	163.436825379764	1617
0	20986	163.542980711394	1618
0	21003	163.689934042981	1619
0	21012	163.736621260727	1620
0	21018	163.780848379628	1621
0	21031	163.891180909898	1622
0	21044	163.988378549206	1623
0	21053	164.04942190351	1624
0	21059	164.083469722664	1625
0	21061	164.092360145154	1626
0	21085	164.299825383394	1627
0	21094	164.326374887659	1628
0	21096	164.338301374657	1629
0	21098	164.346788747038	1630
0	21100	164.370669602983	1631
0	21106	164.409532959606	1632
0	21115	164.429748653231	1633
0	21128	164.524250452292	1634
0	21134	164.575838624545	1635
0	21136	164.621666080851	1636
0	21156	164.758406652751	1637
0	21173	164.887952319144	1638
0	21182	164.962798742636	1639
0	21199	165.076137568666	1640
0	21208	165.143017437083	1641
0	21210	165.158646701333	1642
0	21212	165.158701313329	1643
0	21218	165.177098707692	1644
0	21227	165.232507122177	1645
0	21229	165.239167635901	1646
0	21231	165.245733954419	1647
0	21237	165.276431692673	1648
0	21239	165.299783063277	1649
0	21248	165.342608866158	1650
0	21276	165.612014634656	1651
0	21278	165.621253386532	1652
0	21287	165.64551128242	1653
0	21300	165.737699208248	1654
0	21324	165.933130085418	1655
0	21337	166.058437894818	1656
0	21354	166.220838939198	1657
0	21363	166.237944121102	1658
0	21365	166.255277873225	1659
0	21371	166.297153808451	1660
0	21384	166.390221164113	1661
0	21397	166.520141097356	1662
0	21406	166.532432676171	1663
0	21419	166.641294293476	1664
0	21432	166.771448504321	1665
0	21456	166.964178954046	1666
0	21469	167.065641629472	1667
0	21482	167.1465206421	1668
0	21499	167.313619299619	1669
0	21501	167.316228696115	1670
0	21514	167.381503058169	1671
0	21516	167.387405963455	1672
0	21547	167.633755426373	1673
0	21549	167.642100228129	1674
0	21551	167.647161049061	1675
0	21557	167.71996333736	1676
0	21566	167.754620038273	1677
0	21583	167.895313092801	1678
0	21596	168.020858159951	1679
0	21598	168.024138715423	1680
0	21611	168.078285964789	1681
0	21620	168.139293043917	1682
0	21622	168.158282219663	1683
0	21646	168.332463621809	1684
0	21648	168.343804094028	1685
0	21661	168.454248774527	1686
0	21678	168.624261167453	1687
0	21691	168.703208826937	1688
0	21700	168.767291434087	1689
0	21713	168.856161836848	1690
0	21737	169.070109589146	1691
0	21765	169.29690862823	1692
0	21778	169.429067638848	1693
0	21791	169.514652560992	1694
0	21800	169.567369439962	1695
0	21806	169.62215630936	1696
0	21815	169.668918717087	1697
0	21832	169.790304773393	1698
0	21841	169.862797117024	1699
0	21847	169.906990435911	1700
0	21871	170.126866964878	1701
0	21917	170.487732466571	1702
0	21930	170.621398570446	1703
0	21954	170.827207688211	1704
0	21956	170.827724316821	1705
0	21965	170.84476205269	1706
0	21978	170.963230667755	1707
0	21995	171.078471769693	1708
0	22019	171.330430785589	1709
0	22028	171.333897255845	1710
0	22041	171.457841971723	1711
0	22065	171.674304689291	1712
0	22071	171.693785298943	1713
0	22095	171.880123897323	1714
0	22104	171.946195406665	1715
0	22110	172.01755652199	1716
0	22112	172.032675564634	1717
0	22121	172.046336450603	1718
0	22127	172.090808296099	1719
0	22140	172.187955091456	1720
0	22171	172.464603108262	1721
0	22177	172.491959594487	1722
0	22208	172.748751866463	1723
0	22221	172.848412794378	1724
0	22227	172.881657986536	1725
0	22240	172.999991938872	1726
0	22249	173.041487597144	1727
0	22251	173.052721065209	1728
0	22264	173.144403368939	1729
0	22270	173.209210404907	1730
0	22312	173.539428800152	1731
0	22318	173.62751956188	1732
0	22327	173.643513122267	1733
0	22329	173.672765929559	1734
0	22335	173.702460635437	1735
0	22337	173.72490135579	1736
0	22361	173.931697587306	1737
0	22374	174.033268854612	1738
0	22387	174.100975025848	1739
0	22407	174.243996960674	1740
0	22431	174.473221923258	1741
0	22437	174.517711770157	1742
0	22446	174.53823205199	1743
0	22459	174.661640054664	1744
0	22465	174.737711714847	1745
0	22478	174.826233399312	1746
0	22487	174.865725928521	1747
0	22504	175.031585267212	1748
0	22513	175.069644357143	1749
0	22519	175.092469019463	1750
0	22528	175.151686499861	1751
0	22545	175.310844711169	1752
0	22554	175.367597969552	1753
0	22560	175.398578183008	1754
0	22569	175.442793200201	1755
0	22575	175.47821306161	1756
0	22599	175.724689075252	1757
0	22645	176.107146040896	1758
0	22658	176.238727464075	1759
0	22667	176.243438047824	1760
0	22680	176.373466962027	1761
0	22686	176.39450865235	1762
0	22688	176.428745493636	1763
0	22701	176.502324826337	1764
0	22714	176.588530989067	1765
0	22716	176.635690561112	1766
0	22740	176.786731042981	1767
0	22742	176.814451386833	1768
0	22762	176.97321431559	1769
0	22779	177.088590691927	1770
0	22781	177.130831036867	1771
0	22794	177.241466343363	1772
0	22818	177.388814121028	1773
0	22853	177.720520858799	1774
0	22873	177.853661293844	1775
0	22897	178.064528042033	1776
0	22903	178.079785656847	1777
0	22971	178.676409226822	1778
0	22995	178.877360088492	1779
0	22997	178.922441069555	1780
0	23010	178.980659174869	1781
0	23012	178.985288125461	1782
0	23021	179.051921213063	1783
0	23027	179.09126945276	1784
0	23036	179.150757078349	1785
0	23042	179.21945664194	1786
0	23055	179.303353970233	1787
0	23057	179.322251821905	1788
0	23070	179.41931839669	1789
0	23072	179.428209832925	1790
0	23085	179.497161125117	1791
0	23094	179.557442215917	1792
0	23118	179.759023962351	1793
0	23146	180.028832266646	1794
0	23159	180.127647131963	1795
0	23179	180.271686292464	1796
0	23185	180.323007130587	1797
0	23194	180.360329103423	1798
0	23200	180.414233054277	1799
0	23224	180.633709759156	1800
0	23248	180.800225231894	1801
0	23261	180.919718045231	1802
0	23270	180.962518560277	1803
0	23276	181.024758362712	1804
0	23284	181.048514917005	1805
0	23291	181.07925164428	1806
0	23293	181.085373587492	1807
0	23302	181.171065897641	1808
0	23330	181.379834923954	1809
0	23332	181.401513926529	1810
0	23363	181.652286160055	1811
0	23380	181.787468368662	1812
0	23382	181.800265363149	1813
0	23417	182.076613007208	1814
0	23419	182.117330725262	1815
0	23432	182.224996590147	1816
0	23434	182.244278889027	1817
0	23454	182.373375159586	1818
0	23460	182.385693496815	1819
0	23462	182.403664602739	1820
0	23486	182.633789939342	1821
0	23506	182.771711474416	1822
0	23512	182.777567359248	1823
0	23514	182.846354836396	1824
0	23560	183.240015449377	1825
0	23562	183.249159314181	1826
0	23571	183.25930179252	1827
0	23577	183.308150721159	1828
0	23601	183.507272285209	1829
0	23614	183.638001423709	1830
0	23627	183.721589180463	1831
0	23640	183.807914034889	1832
0	23649	183.853787569023	1833
0	23655	183.890371052937	1834
0	23657	183.932278133294	1835
0	23714	184.381007974417	1836
0	23727	184.522627322467	1837
0	23740	184.607966391089	1838
0	23742	184.645737761643	1839
0	23777	184.935687627011	1840
0	23790	185.042783131648	1841
0	23803	185.12482988844	1842
0	23816	185.197671285981	1843
0	23829	185.280835581252	1844
0	23831	185.347187749745	1845
0	23833	185.352440358781	1846
0	23868	185.583867848642	1847
0	23870	185.594858126161	1848
0	23883	185.675746495023	1849
0	23892	185.771051837641	1850
0	23909	185.946418239374	1851
0	23933	186.07795848863	1852
0	23946	186.207265682418	1853
0	23948	186.235241362657	1854
0	23950	186.23917338765	1855
0	23992	186.57152960029	1856
0	24009	186.71985862012	1857
0	24022	186.85504330581	1858
0	24035	186.87948899507	1859
0	24037	186.906671346971	1860
0	24061	187.140130169178	1861
0	24074	187.243530751452	1862
0	24076	187.247918019247	1863
0	24089	187.289432658696	1864
0	24091	187.329939981614	1865
0	24111	187.459944582532	1866
0	24113	187.470450965822	1867
0	24119	187.558300514872	1868
0	24132	187.622848491975	1869
0	24152	187.764175473504	1870
0	24169	187.935667783914	1871
0	24178	187.964631353707	1872
0	24184	188.000040233717	1873
0	24215	188.269300220484	1874
0	24221	188.285662161835	1875
0	24278	188.781865436325	1876
0	24280	188.82195305769	1877
0	24282	188.839929466507	1878
0	24306	189.008065906032	1879
0	24319	189.079995583259	1880
0	24321	189.095122527763	1881
0	24345	189.294248176897	1882
0	24347	189.320042699826	1883
0	24356	189.362767461457	1884
0	24358	189.369901162099	1885
0	24364	189.397692466779	1886
0	24377	189.520011440834	1887
0	24390	189.651340076369	1888
0	24403	189.701631318037	1889
0	24449	190.081134551409	1890
0	24451	190.118362729723	1891
0	24464	190.188429833939	1892
0	24477	190.315237026324	1893
0	24486	190.365065908045	1894
0	24492	190.406009839312	1895
0	24494	190.455756837054	1896
0	24518	190.58586810084	1897
0	24531	190.744102165869	1898
0	24555	190.912949948671	1899
0	24568	191.035388252269	1900
0	24570	191.059935200483	1901
0	24583	191.098342357653	1902
0	24618	191.462613326455	1903
0	24664	191.829869284979	1904
0	24666	191.847585726071	1905
0	24697	192.069760446321	1906
0	24703	192.10412798482	1907
0	24716	192.22483510091	1908
0	24718	192.244655232965	1909
0	24731	192.302775963276	1910
0	24733	192.345165197308	1911
0	24742	192.368395733723	1912
0	24748	192.433800089975	1913
0	24761	192.54315202769	1914
0	24774	192.617003281392	1915
0	24787	192.757200976092	1916
0	24811	192.94934636969	1917
0	24824	193.042000060744	1918
0	24848	193.262226905288	1919
0	24861	193.330668799444	1920
0	24863	193.355528251871	1921
0	24870	193.368089286805	1922
0	24878	193.465612191048	1923
0	24902	193.619198677626	1924
0	24904	193.63102029713	1925
0	24917	193.698667285117	1926
0	24919	193.760095312979	1927
0	24943	193.952588896745	1928
0	24956	193.991498902585	1929
0	24958	194.005980516033	1930
0	24960	194.044033487042	1931
0	25006	194.379529924978	1932
0	25008	194.445420779662	1933
0	25021	194.512991011238	1934
0	25034	194.643860527211	1935
0	25036	194.651370644297	1936
0	25038	194.658539866102	1937
0	25051	194.691406071869	1938
0	25075	194.902745900297	1939
0	25099	195.135618489015	1940
0	25112	195.268350786264	1941
0	25125	195.30900004302	1942
0	25127	195.328419140898	1943
0	25173	195.679335601812	1944
0	25197	195.959287878658	1945
0	25210	196.018008415788	1946
0	25223	196.088593615299	1947
0	25225	196.134329406444	1948
0	25326	196.990431232375	1949
0	25339	197.146386360547	1950
0	25341	197.168358735097	1951
0	25354	197.23130452523	1952
0	25367	197.307856572614	1953
0	25369	197.31571399531	1954
0	25371	197.349997967896	1955
0	25395	197.526514145853	1956
0	25397	197.562779647157	1957
0	25421	197.719064802598	1958
0	25434	197.808484801619	1959
0	25447	197.880843978429	1960
0	25471	198.135589103518	1961
0	25473	198.136562154111	1962
0	25497	198.300173128171	1963
0	25499	198.314832707426	1964
0	25512	198.443546918007	1965
0	25525	198.568023125886	1966
0	25538	198.649933580225	1967
0	25551	198.739302769399	1968
0	25586	198.994790848373	1969
0	25599	199.115202964385	1970
0	25612	199.183001516556	1971
0	25614	199.227776344032	1972
0	25638	199.434790577848	1973
0	25651	199.534047489633	1974
0	25675	199.713613183517	1975
0	25677	199.770675459317	1976
0	25690	199.794734362093	1977
0	25692	199.84814396089	1978
0	25716	199.995645792347	1979
1	2	0.079587450457	1
1	3	0.079587450457	1
1	5	0.169443489305	1
1	6	0.179587450457	2
1	15	0.29503656511	1
1	16	0.29503656511	3
1	37	0.480996986317	1
1	38	0.480996986317	4
1	43	0.573319299464	1
1	44	0.580996986317	5
1	60	0.768473833052	1
1	61	0.768473833052	6
1	72	0.84719394705	1
1	73	0.868473833052	7
1	89	1.03509035247	1
1	90	1.03509035247	8
1	101	1.090195201137	1
1	102	1.13509035247	9
1	113	1.187895843776	1
1	114	1.23509035247	10
1	120	1.291711773842	1
1	121	1.33509035247	11
1	133	1.340224590214	1
1	135	1.397776509902	2
1	137	1.433092423816	3
1	138	1.43509035247	12
1	149	1.53509035247	13
1	160	1.63509035247	14
1	172	1.65544486602	1
1	174	1.661283332929	2
1	175	1.73509035247	15
1	186	1.83509035247	16
1	209	1.992774560922	1
1	210	1.992774560922	17
1	212	2.024610175006	1
1	223	2.072970385501	2
1	224	2.092774560922	18
1	235	2.137915020326	2
1	236	2.192774560922	19
1	241	2.292774560922	20
1	253	2.294804632088	1
1	254	2.392774560922	21
1	266	2.46202575212	1
1	267	2.492774560922	22
1	279	2.537293163451	1
1	280	2.592774560922	23
1	292	2.602681420173	1
1	294	2.686624705463	2
1	295	2.692774560922	24
1	307	2.736511906365	2
1	308	2.792774560922	25
1	319	2.892774560922	26
1	342	2.99633731495	1
1	343	2.99633731495	27
1	357	3.177174241377	1
1	358	3.177174241377	28
1	360	3.184542776924	1
1	372	3.225700576548	2
1	374	3.23481667916	3
1	375	3.277174241377	29
1	386	3.339277929991	3
1	388	3.341320488831	4
1	389	3.377174241377	30
1	395	3.387245302557	4
1	396	3.477174241377	31
1	408	3.565994068901	4
1	409	3.577174241377	32
1	420	3.677174241377	33
1	431	3.777174241377	34
1	442	3.877174241377	35
1	454	3.881011061769	1
1	455	3.977174241377	36
1	467	4.031589487633	1
1	469	4.046712572999	2
1	470	4.077174241377	37
1	481	4.177174241377	38
1	493	4.250743998793	1
1	494	4.277174241377	39
1	517	4.454833220384	1
1	518	4.454833220384	40
1	549	4.839355407298	1
1	550	4.839355407298	41
1	552	4.903526324566	1
1	553	4.939355407298	42
1	562	5.064050280272	1
1	563	5.064050280272	43
1	577	5.225450487761	1
1	578	5.225450487761	44
1	590	5.287343433724	1
1	591	5.325450487761	45
1	595	5.360839875843	1
1	603	5.425450487761	46
1	609	5.512493473242	1
1	610	5.525450487761	47
1	631	5.626087367413	1
1	632	5.626087367413	48
1	636	5.638674808357	1
1	641	5.726087367413	49
1	650	5.766197578579	1
1	651	5.826087367413	50
1	663	5.868340766014	1
1	664	5.926087367413	51
1	676	5.955572885518	1
1	678	5.971045853568	2
1	679	6.026087367413	52
1	691	6.048129319415	2
1	692	6.126087367413	53
1	703	6.226087367413	54
1	726	6.337571367214	1
1	727	6.337571367214	55
1	741	6.479707835223	1
1	742	6.479707835223	56
1	754	6.553490564399	1
1	756	6.564685180462	2
1	757	6.579707835223	57
1	761	6.618241752485	2
1	769	6.679707835223	58
1	775	6.682411222688	2
1	777	6.713139257903	3
1	779	6.733759586106	4
1	780	6.779707835223	59
1	791	6.879707835223	60
1	803	6.882585068681	3
1	804	6.979707835223	61
1	816	7.016114087143	3
1	818	7.077022329461	4
1	819	7.079707835223	62
1	831	7.101427178535	4
1	832	7.179707835223	63
1	844	7.185460649096	4
1	846	7.199988451825	5
1	848	7.201885308745	6
1	850	7.241062389813	7
1	851	7.279707835223	64
1	863	7.33720048372	7
1	865	7.353414132665	8
1	866	7.379707835223	65
1	878	7.448113800382	8
1	880	7.473257993589	9
1	881	7.479707835223	66
1	893	7.569212791326	9
1	894	7.579707835223	67
1	906	7.618068496257	9
1	907	7.679707835223	68
1	918	7.779707835223	69
1	929	7.879707835223	70
1	941	7.905859998385	7
1	942	7.979707835223	71
1	953	8.079707835223	72
1	965	8.138751335806	6
1	966	8.179707835223	73
1	978	8.253265231276	6
1	979	8.279707835223	74
1	991	8.313039838958	6
1	993	8.357591688463	7
1	994	8.379707835223	75
1	1006	8.452541146813	7
1	1007	8.479707835223	76
1	1019	8.509994387487	7
1	1020	8.579707835223	77
1	1031	8.679707835223	78
1	1043	8.742629493656	6
1	1044	8.779707835223	79
1	1056	8.862240273602	6
1	1058	8.87269639618	7
1	1060	8.878907925227	8
1	1061	8.879707835223	80
1	1072	8.979707835223	81
1	1083	9.079707835223	82
1	1094	9.179707835223	83
1	1106	9.228929293672	5
1	1107	9.279707835223	84
1	1119	9.338820540427	5
1	1120	9.379707835223	85
1	1132	9.444703953576	5
1	1133	9.479707835223	86
1	1145	9.555763698145	5
1	1147	9.574506304747	6
1	1148	9.579707835223	87
1	1160	9.598126975355	6
1	1162	9.642467378217	7
1	1164	9.65627024706	8
1	1165	9.679707835223	88
1	1176	9.779707835223	89
1	1188	9.795174516039	7
1	1190	9.833070712467	8
1	1191	9.879707835223	90
1	1203	9.926676868444	8
1	1205	9.971887074466	9
1	1206	9.979707835223	91
1	1218	10.011198330196	9
1	1219	10.079707835223	92
1	1231	10.095641109549	9
1	1233	10.09955942519	10
1	1235	10.157291856271	11
1	1236	10.179707835223	93
1	1248	10.257878956788	11
1	1249	10.279707835223	94
1	1260	10.379707835223	95
1	1271	10.479707835223	96
1	1282	10.579707835223	97
1	1293	10.679707835223	98
1	1305	10.703328641406	7
1	1306	10.779707835223	99
1	1317	10.879707835223	100
1	1328	10.979707835223	101
1	1340	11.022623305611	5
1	1342	11.033386816427	6
1	1343	11.079707835223	102
1	1355	11.139169457762	6
1	1357	11.16259960964	7
1	1358	11.179707835223	103
1	1370	11.263401534182	7
1	1371	11.279707835223	104
1	1376	11.280992888725	7
1	1384	11.379707835223	105
1	1395	11.479707835223	106
1	1406	11.579707835223	107
1	1417	11.679707835223	108
1	1428	11.779707835223	109
1	1440	11.817002923749	3
1	1441	11.879707835223	110
1	1453	11.922877195258	3
1	1454	11.979707835223	111
1	1466	12.010068780621	3
1	1468	12.039276833948	4
1	1469	12.079707835223	112
1	1481	12.092783301656	4
1	1483	12.155577459755	5
1	1484	12.179707835223	113
1	1496	12.219955559915	5
1	1498	12.247983260763	6
1	1499	12.279707835223	114
1	1511	12.34566966817	6
1	1513	12.362982413785	7
1	1514	12.379707835223	115
1	1526	12.404232536777	7
1	1528	12.415928077756	8
1	1529	12.479707835223	116
1	1541	12.528244907909	8
1	1542	12.579707835223	117
1	1554	12.635052127624	8
1	1556	12.673207711961	9
1	1557	12.679707835223	118
1	1562	12.688078938886	9
1	1570	12.779707835223	119
1	1582	12.838742472213	9
1	1584	12.860630531864	10
1	1585	12.879707835223	120
1	1596	12.979707835223	121
1	1607	13.079707835223	122
1	1619	13.159349521049	8
1	1620	13.179707835223	123
1	1632	13.205350916823	8
1	1633	13.279707835223	124
1	1645	13.313977854911	8
1	1646	13.379707835223	125
1	1657	13.479707835223	126
1	1662	13.486011020683	7
1	1664	13.487377478526	8
1	1673	13.497591966678	9
1	1674	13.579707835223	127
1	1686	13.595102160094	9
1	1687	13.679707835223	128
1	1699	13.777084052022	9
1	1700	13.779707835223	129
1	1711	13.879707835223	130
1	1716	13.889065488597	8
1	1725	13.899168966128	9
1	1726	13.979707835223	131
1	1737	14.079707835223	132
1	1748	14.179707835223	133
1	1760	14.256527803362	7
1	1761	14.279707835223	134
1	1772	14.379707835223	135
1	1783	14.479707835223	136
1	1794	14.579707835223	137
1	1806	14.63143094932	4
1	1807	14.679707835223	138
1	1818	14.779707835223	139
1	1830	14.841963079399	3
1	1831	14.879707835223	140
1	1843	14.905196739039	3
1	1845	14.976455098372	4
1	1846	14.979707835223	141
1	1857	15.079707835223	142
1	1868	15.179707835223	143
1	1879	15.279707835223	144
1	1891	15.352647826822	1
1	1893	15.358380519464	2
1	1894	15.379707835223	145
1	1906	15.451228369154	2
1	1907	15.479707835223	146
1	1919	15.511223057818	2
1	1920	15.579707835223	147
1	1932	15.645647585033	2
1	1934	15.647666597848	3
1	1936	15.651664227754	4
1	1937	15.679707835223	148
1	1949	15.709952066641	4
1	1951	15.743193090737	5
1	1952	15.779707835223	149
1	1963	15.879707835223	150
1	1974	15.979707835223	151
1	1985	16.079707835223	152
1	1997	16.132350103022	2
1	1999	16.145155779553	3
1	2000	16.179707835223	153
1	2005	16.189697725745	3
1	2014	16.224815334683	4
1	2015	16.279707835223	154
1	2020	16.290379963119	4
1	2029	16.303018826762	5
1	2030	16.379707835223	155
1	2042	16.419706179417	5
1	2044	16.457976274303	6
1	2045	16.479707835223	156
1	2056	16.579707835223	157
1	2068	16.670399994003	5
1	2069	16.679707835223	158
1	2081	16.723888431579	5
1	2082	16.779707835223	159
1	2093	16.879707835223	160
1	2105	16.974279609888	4
1	2106	16.979707835223	161
1	2111	16.980909350036	4
1	2120	17.005348894844	5
1	2121	17.079707835223	162
1	2133	17.123267847551	5
1	2134	17.179707835223	163
1	2146	17.206552199158	5
1	2147	17.279707835223	164
1	2152	17.290161952355	5
1	2160	17.379707835223	165
1	2171	17.479707835223	166
1	2176	17.490486004606	4
1	2185	17.521327488616	5
1	2186	17.579707835223	167
1	2191	17.592452282338	5
1	2200	17.666528177383	6
1	2201	17.679707835223	168
1	2212	17.779707835223	169
1	2223	17.879707835223	170
1	2235	17.915086413081	4
1	2237	17.924951443923	5
1	2238	17.979707835223	171
1	2249	18.079707835223	172
1	2261	18.178981894719	4
1	2262	18.179707835223	173
1	2274	18.264771458826	4
1	2276	18.27344850706	5
1	2277	18.279707835223	174
1	2288	18.379707835223	175
1	2299	18.479707835223	176
1	2311	18.538374099928	3
1	2313	18.570908141481	4
1	2314	18.579707835223	177
1	2326	18.609264162891	4
1	2328	18.610204237957	5
1	2329	18.679707835223	178
1	2341	18.720288828966	5
1	2342	18.779707835223	179
1	2353	18.879707835223	180
1	2365	18.905021594066	4
1	2367	18.919154665422	5
1	2368	18.979707835223	181
1	2380	19.02333273084	5
1	2381	19.079707835223	182
1	2393	19.149326111851	5
1	2394	19.179707835223	183
1	2405	19.279707835223	184
1	2417	19.333454359	4
1	2419	19.367619775703	5
1	2420	19.379707835223	185
1	2425	19.398371548079	5
1	2434	19.418606591936	6
1	2436	19.469326604262	7
1	2437	19.479707835223	186
1	2449	19.557639508458	7
1	2450	19.579707835223	187
1	2462	19.638119248438	7
1	2464	19.640150494318	8
1	2466	19.658175719516	9
1	2467	19.679707835223	188
1	2478	19.779707835223	189
1	2490	19.834749826757	8
1	2491	19.879707835223	190
1	2496	19.880922916361	8
1	2498	19.88139357041	9
1	2500	19.897227721033	10
1	2508	19.979707835223	191
1	2520	20.01049113523	10
1	2521	20.079707835223	192
1	2526	20.094799438445	10
1	2535	20.12627160453	11
1	2536	20.179707835223	193
1	2548	20.247922469874	11
1	2549	20.279707835223	194
1	2560	20.379707835223	195
1	2565	20.380798257249	10
1	2574	20.414832931073	11
1	2575	20.479707835223	196
1	2586	20.579707835223	197
1	2597	20.679707835223	198
1	2609	20.742347248844	9
1	2610	20.779707835223	199
1	2615	20.799137664192	9
1	2624	20.827739761443	10
1	2625	20.879707835223	200
1	2637	20.968842202372	10
1	2638	20.979707835223	201
1	2650	21.054681499155	10
1	2651	21.079707835223	202
1	2663	21.105115879814	10
1	2664	21.179707835223	203
1	2669	21.194774966893	10
1	2677	21.279707835223	204
1	2688	21.379707835223	205
1	2700	21.421148324479	9
1	2701	21.479707835223	206
1	2713	21.506070405635	9
1	2714	21.579707835223	207
1	2726	21.607936278637	9
1	2728	21.633178277926	10
1	2729	21.679707835223	208
1	2740	21.779707835223	209
1	2752	21.855328967773	9
1	2753	21.879707835223	210
1	2764	21.979707835223	211
1	2775	22.079707835223	212
1	2787	22.160557133461	7
1	2788	22.179707835223	213
1	2800	22.274517929814	7
1	2801	22.279707835223	214
1	2813	22.333780332559	7
1	2814	22.379707835223	215
1	2819	22.393418271992	7
1	2827	22.479707835223	216
1	2838	22.579707835223	217
1	2843	22.580764259978	6
1	2851	22.679707835223	218
1	2862	22.779707835223	219
1	2873	22.879707835223	220
1	2885	22.965064918302	4
1	2886	22.979707835223	221
1	2897	23.079707835223	222
1	2902	23.085288775027	3
1	2904	23.097641439763	4
1	2913	23.13294345309	5
1	2914	23.179707835223	223
1	2926	23.278625308946	5
1	2927	23.279707835223	224
1	2938	23.379707835223	225
1	2950	23.446717529401	4
1	2951	23.479707835223	226
1	2956	23.499789779063	4
1	2965	23.550291653838	5
1	2966	23.579707835223	227
1	2978	23.662819855522	5
1	2979	23.679707835223	228
1	2990	23.779707835223	229
1	3002	23.875769795129	4
1	3003	23.879707835223	230
1	3008	23.904510842736	4
1	3016	23.979707835223	231
1	3021	23.991564425369	4
1	3030	24.02913830961	5
1	3031	24.079707835223	232
1	3042	24.179707835223	233
1	3054	24.242621354608	4
1	3055	24.279707835223	234
1	3066	24.379707835223	235
1	3077	24.479707835223	236
1	3089	24.579058399913	2
1	3090	24.579707835223	237
1	3101	24.679707835223	238
1	3106	24.696996693277	1
1	3114	24.779707835223	239
1	3119	24.785782834321	1
1	3127	24.879707835223	240
1	3139	24.914973761201	1
1	3140	24.979707835223	241
1	3152	25.022757249615	1
1	3153	25.079707835223	242
1	3158	25.092337195705	1
1	3167	25.168523972835	2
1	3168	25.179707835223	243
1	3179	25.279707835223	244
1	3204	25.481070808601	1
1	3205	25.481070808601	245
1	3207	25.507276532769	1
1	3215	25.581070808601	246
1	3226	25.610556233834	1
1	3228	25.66078731366	2
1	3229	25.681070808601	247
1	3235	25.715926912673	2
1	3236	25.781070808601	248
1	3248	25.812372269222	2
1	3249	25.881070808601	249
1	3261	25.905612557263	2
1	3263	25.970023028095	3
1	3265	25.97196100623	4
1	3266	25.981070808601	250
1	3278	26.035473777793	4
1	3280	26.07136649938	5
1	3281	26.081070808601	251
1	3292	26.181070808601	252
1	3304	26.197270851106	4
1	3305	26.281070808601	253
1	3317	26.305202870972	4
1	3319	26.33916934423	5
1	3321	26.3734293067	6
1	3322	26.381070808601	254
1	3334	26.421792875359	6
1	3335	26.481070808601	255
1	3347	26.518030380936	6
1	3348	26.581070808601	256
1	3360	26.65632830159	6
1	3361	26.681070808601	257
1	3373	26.712324408597	6
1	3374	26.781070808601	258
1	3385	26.881070808601	259
1	3397	26.923069169092	5
1	3399	26.937626566937	6
1	3401	26.948481276786	7
1	3402	26.981070808601	260
1	3414	26.983903690011	7
1	3416	26.993595965469	8
1	3418	27.077984812728	9
1	3419	27.081070808601	261
1	3431	27.121687614105	9
1	3432	27.181070808601	262
1	3444	27.211060521936	9
1	3445	27.281070808601	263
1	3457	27.291315720512	9
1	3459	27.376723694076	10
1	3461	27.380144035912	11
1	3462	27.381070808601	264
1	3473	27.481070808601	265
1	3485	27.48604497445	10
1	3486	27.581070808601	266
1	3497	27.681070808601	267
1	3508	27.781070808601	268
1	3520	27.833298522378	8
1	3521	27.881070808601	269
1	3533	27.938883483244	8
1	3535	27.977596492459	9
1	3536	27.981070808601	270
1	3548	28.034057542571	9
1	3550	28.059065692069	10
1	3551	28.081070808601	271
1	3562	28.181070808601	272
1	3573	28.281070808601	273
1	3585	28.285929091338	8
1	3587	28.301158453863	9
1	3589	28.346975742259	10
1	3591	28.357207803744	11
1	3592	28.381070808601	274
1	3604	28.414453958887	11
1	3605	28.481070808601	275
1	3616	28.581070808601	276
1	3627	28.681070808601	277
1	3638	28.781070808601	278
1	3650	28.828234934938	8
1	3651	28.881070808601	279
1	3662	28.981070808601	280
1	3674	29.050726400661	7
1	3676	29.080882991983	8
1	3677	29.081070808601	281
1	3688	29.181070808601	282
1	3700	29.244972749776	7
1	3701	29.281070808601	283
1	3713	29.321980435731	7
1	3714	29.381070808601	284
1	3726	29.443682385265	7
1	3727	29.481070808601	285
1	3739	29.503089735097	7
1	3741	29.51365099946	8
1	3743	29.52413918302	9
1	3744	29.581070808601	286
1	3755	29.681070808601	287
1	3767	29.776067396028	8
1	3768	29.781070808601	288
1	3780	29.819501961622	8
1	3781	29.881070808601	289
1	3793	29.944762714113	8
1	3794	29.981070808601	290
1	3806	30.008108975885	8
1	3807	30.081070808601	291
1	3818	30.181070808601	292
1	3829	30.281070808601	293
1	3840	30.381070808601	294
1	3851	30.481070808601	295
1	3862	30.581070808601	296
1	3873	30.681070808601	297
1	3878	30.684648027879	2
1	3886	30.781070808601	298
1	3898	30.868621306387	2
1	3899	30.881070808601	299
1	3904	30.884808315058	2
1	3912	30.981070808601	300
1	3923	31.081070808601	301
1	3935	31.119826044033	1
1	3936	31.181070808601	302
1	3959	31.322416925743	1
1	3960	31.322416925743	303
1	3962	31.326245217031	1
1	3964	31.343977774546	2
1	3975	31.414969567268	3
1	3976	31.422416925743	304
1	3987	31.51056620966	3
1	3988	31.522416925743	305
1	3994	31.528820069848	3
1	3996	31.542038440809	4
1	3997	31.622416925743	306
1	4009	31.69302078637	4
1	4010	31.722416925743	307
1	4021	31.822416925743	308
1	4033	31.881413675029	3
1	4034	31.922416925743	309
1	4045	32.022416925743	310
1	4057	32.081612324582	2
1	4058	32.122416925743	311
1	4069	32.222416925743	312
1	4081	32.246284234715	1
1	4083	32.299284522529	2
1	4084	32.322416925743	313
1	4096	32.383472618702	2
1	4098	32.398551719721	3
1	4099	32.422416925743	314
1	4111	32.45083872273	3
1	4113	32.454217401285	4
1	4115	32.461384939716	5
1	4116	32.522416925743	315
1	4127	32.622416925743	316
1	4138	32.722416925743	317
1	4149	32.822416925743	318
1	4161	32.866369623596	2
1	4162	32.922416925743	319
1	4174	32.985913480224	2
1	4175	33.022416925743	320
1	4187	33.032640736865	2
1	4189	33.09307064405	3
1	4190	33.122416925743	321
1	4202	33.147556356864	3
1	4203	33.222416925743	322
1	4215	33.275589777245	3
1	4217	33.280781032463	4
1	4218	33.322416925743	323
1	4229	33.422416925743	324
1	4241	33.482058306084	3
1	4242	33.522416925743	325
1	4254	33.527549490563	3
1	4255	33.622416925743	326
1	4266	33.722416925743	327
1	4277	33.822416925743	328
1	4289	33.898545549753	1
1	4291	33.900222326352	2
1	4292	33.922416925743	329
1	4303	34.022416925743	330
1	4315	34.093880050101	1
1	4317	34.120112981018	2
1	4319	34.12129130421	3
1	4320	34.122416925743	331
1	4331	34.222416925743	332
1	4343	34.266070712409	2
1	4345	34.310695994461	3
1	4346	34.322416925743	333
1	4357	34.422416925743	334
1	4368	34.522416925743	335
1	4380	34.599157169671	1
1	4381	34.622416925743	336
1	4404	34.730087006073	1
1	4405	34.730087006073	337
1	4419	34.868716141275	1
1	4420	34.868716141275	338
1	4422	34.887545638797	1
1	4431	34.929006893063	2
1	4435	34.968716141275	339
1	4439	35.002620003062	2
1	4447	35.068716141275	340
1	4453	35.069866054745	2
1	4455	35.075453060034	3
1	4457	35.116850952301	4
1	4459	35.139164873111	5
1	4461	35.158947823857	6
1	4463	35.160817370899	7
1	4464	35.168716141275	341
1	4476	35.179569266019	7
1	4477	35.268716141275	342
1	4489	35.33741053823	7
1	4490	35.368716141275	343
1	4502	35.399670272628	7
1	4504	35.425020843142	8
1	4505	35.468716141275	344
1	4516	35.568716141275	345
1	4528	35.632623949186	7
1	4529	35.668716141275	346
1	4541	35.674989659322	7
1	4542	35.768716141275	347
1	4553	35.868716141275	348
1	4565	35.963444088163	6
1	4566	35.968716141275	349
1	4577	36.068716141275	350
1	4588	36.168716141275	351
1	4600	36.226665974418	4
1	4601	36.268716141275	352
1	4613	36.32037984619	4
1	4614	36.368716141275	353
1	4626	36.442259526524	4
1	4627	36.468716141275	354
1	4639	36.533055929256	4
1	4641	36.536291609721	5
1	4642	36.568716141275	355
1	4653	36.668716141275	356
1	4665	36.689374732348	4
1	4667	36.707370466503	5
1	4668	36.768716141275	357
1	4680	36.776690443457	5
1	4681	36.868716141275	358
1	4693	36.873838659266	5
1	4695	36.879006949846	6
1	4697	36.965099313514	7
1	4698	36.968716141275	359
1	4709	37.068716141275	360
1	4721	37.085196404168	6
1	4723	37.112363211202	7
1	4724	37.168716141275	361
1	4735	37.268716141275	362
1	4746	37.368716141275	363
1	4757	37.468716141275	364
1	4768	37.568716141275	365
1	4780	37.600276500001	3
1	4781	37.668716141275	366
1	4792	37.768716141275	367
1	4803	37.868716141275	368
1	4808	37.872411325592	1
1	4817	37.903508106089	2
1	4818	37.968716141275	369
1	4830	37.998691076843	2
1	4831	38.068716141275	370
1	4843	38.112350726369	2
1	4844	38.168716141275	371
1	4856	38.189058691826	2
1	4857	38.268716141275	372
1	4868	38.368716141275	373
1	4880	38.388775888575	1
1	4881	38.468716141275	374
1	4893	38.477913746266	1
1	4894	38.568716141275	375
1	4906	38.616881452644	1
1	4907	38.668716141275	376
1	4919	38.74785998978	1
1	4920	38.768716141275	377
1	4959	39.081653423165	1
1	4960	39.081653423165	378
1	4962	39.119042072755	1
1	4963	39.181653423165	379
1	4967	39.199840078095	1
1	4969	39.250626590364	2
1	4971	39.274501877649	3
1	4972	39.281653423165	380
1	4978	39.298054334991	3
1	4980	39.323214196302	4
1	4982	39.34381740115	5
1	4984	39.36850332803	6
1	4985	39.381653423165	381
1	4996	39.481653423165	382
1	5007	39.581653423165	383
1	5019	39.65741088722	4
1	5020	39.681653423165	384
1	5032	39.741708764761	4
1	5033	39.781653423165	385
1	5045	39.876243508084	4
1	5046	39.881653423165	386
1	5058	39.936411406736	4
1	5059	39.981653423165	387
1	5071	40.0038358637	4
1	5072	40.081653423165	388
1	5083	40.181653423165	389
1	5094	40.281653423165	390
1	5106	40.355283731754	2
1	5108	40.381085008148	3
1	5109	40.381653423165	391
1	5120	40.481653423165	392
1	5132	40.495198798434	2
1	5134	40.524549563626	3
1	5136	40.533464992626	4
1	5138	40.539443088918	5
1	5140	40.54525032513	6
1	5141	40.581653423165	393
1	5153	40.602240081661	6
1	5155	40.66915145403	7
1	5156	40.681653423165	394
1	5168	40.706518433469	7
1	5169	40.781653423165	395
1	5180	40.881653423165	396
1	5192	40.919385442922	6
1	5193	40.981653423165	397
1	5205	41.038571253287	6
1	5206	41.081653423165	398
1	5217	41.181653423165	399
1	5228	41.281653423165	400
1	5239	41.381653423165	401
1	5251	41.41324071467	3
1	5253	41.460682343703	4
1	5254	41.481653423165	402
1	5266	41.55682630086	4
1	5268	41.576623074393	5
1	5269	41.581653423165	403
1	5281	41.654820646481	5
1	5283	41.657319481812	6
1	5284	41.681653423165	404
1	5295	41.781653423165	405
1	5307	41.8501554955	5
1	5309	41.857117262607	6
1	5310	41.881653423165	406
1	5321	41.981653423165	407
1	5333	41.993310435038	5
1	5334	42.081653423165	408
1	5346	42.107064285592	5
1	5348	42.172187358784	6
1	5349	42.181653423165	409
1	5361	42.232645480618	6
1	5362	42.281653423165	410
1	5374	42.345681035209	6
1	5375	42.381653423165	411
1	5387	42.422593015319	6
1	5388	42.481653423165	412
1	5400	42.51599904858	6
1	5401	42.581653423165	413
1	5412	42.681653423165	414
1	5424	42.742983050158	5
1	5425	42.781653423165	415
1	5437	42.868403377167	5
1	5438	42.881653423165	416
1	5449	42.981653423165	417
1	5460	43.081653423165	418
1	5471	43.181653423165	419
1	5482	43.281653423165	420
1	5494	43.332368629804	1
1	5495	43.381653423165	421
1	5507	43.395761631743	1
1	5509	43.420210733947	2
1	5511	43.481094025321	3
1	5512	43.481653423165	422
1	5523	43.581653423165	423
1	5535	43.589884468682	2
1	5536	43.681653423165	424
1	5547	43.781653423165	425
1	5559	43.826776285766	1
1	5561	43.857336775947	2
1	5563	43.872096379236	3
1	5565	43.874183101097	4
1	5566	43.881653423165	426
1	5578	43.900218242252	4
1	5579	43.981653423165	427
1	5591	44.042256587811	4
1	5592	44.081653423165	428
1	5603	44.181653423165	429
1	5615	44.255612916558	3
1	5616	44.281653423165	430
1	5628	44.294181685963	3
1	5629	44.381653423165	431
1	5640	44.481653423165	432
1	5652	44.528966062106	2
1	5654	44.577329900855	3
1	5655	44.581653423165	433
1	5667	44.681114908404	3
1	5668	44.681653423165	434
1	5680	44.769865101252	3
1	5681	44.781653423165	435
1	5693	44.809122404071	3
1	5694	44.881653423165	436
1	5705	44.981653423165	437
1	5710	44.986936737754	2
1	5719	45.060273505071	3
1	5720	45.081653423165	438
1	5732	45.159423934361	3
1	5734	45.159429469551	4
1	5735	45.181653423165	439
1	5746	45.281653423165	440
1	5758	45.365511593639	3
1	5759	45.381653423165	441
1	5771	45.402887923021	3
1	5773	45.434845388508	4
1	5774	45.481653423165	442
1	5779	45.490262471413	4
1	5787	45.581653423165	443
1	5799	45.650234415597	4
1	5800	45.681653423165	444
1	5811	45.781653423165	445
[...]
7	16065	125.225625847562	1
7	16076	125.325785847562	1
7	16087	125.425945847562	1
7	16100	125.526105847562	1
7	16111	125.626265847562	1
7	16122	125.726425847562	1
7	16133	125.826585847562	1
7	16146	125.926745847562	1
7	16161	126.026905847562	1
7	16172	126.127065847562	1
7	16185	126.227225847562	1
7	16196	126.327385847562	1
7	16207	126.427545847562	1
7	16220	126.527705847562	1
7	16233	126.627865847562	1
7	16246	126.728025847562	1
7	16259	126.828185847562	1
7	16272	126.928345847562	1
7	16283	127.028505847562	1
7	16292	127.128665847562	1
7	16302	127.228825847562	1
7	16314	127.328985847562	1
7	16328	127.517576006624	1
7	16338	127.617736006624	1
7	16351	127.821142151681	1
7	16377	128.135641906951	1
7	16401	128.280272664167	1
7	16418	128.380432664167	1
7	16435	128.480592664167	1
7	16450	128.580752664167	1
7	16461	128.680912664167	1
7	16474	128.781072664167	1
7	16485	128.881232664167	1
7	16500	128.981392664167	1
7	16511	129.081552664167	1
7	16522	129.181712664167	1
7	16535	129.281872664167	1
7	16554	129.382032664167	1
7	16567	129.482192664167	1
7	16580	129.582352664167	1
7	16591	129.682512664167	1
7	16602	129.782672664167	1
7	16615	129.882832664167	1
7	16628	129.982992664167	1
7	16639	130.083152664167	1
7	16650	130.183312664167	1
7	16663	130.283472664167	1
7	16674	130.383632664167	1
7	16689	130.483792664167	1
7	16700	130.583952664167	1
7	16711	130.684112664167	1
7	16724	130.784272664167	1
7	16737	130.884432664167	1
7	16748	130.984592664167	1
7	16759	131.084752664167	1
7	16770	131.184912664167	1
7	16782	131.285072664167	1
7	16792	131.385232664167	1
7	16807	131.518555054888	1
7	16833	131.740933336463	1
7	16843	131.841093336463	1
7	16861	131.943819767573	1
7	16876	132.043979767573	1
7	16889	132.144139767573	1
7	16900	132.244299767573	1
7	16911	132.344459767573	1
7	16924	132.444619767573	1
7	16935	132.544779767573	1
7	16955	132.644939767573	1
7	16967	132.745099767573	1
7	16985	132.84676130489	1
7	17004	132.94692130489	1
7	17015	133.04708130489	1
7	17026	133.14724130489	1
7	17037	133.24740130489	1
7	17050	133.34756130489	1
7	17061	133.44772130489	1
7	17074	133.54788130489	1
7	17085	133.64804130489	1
7	17096	133.74820130489	1
7	17113	133.84836130489	1
7	17130	133.94852130489	1
7	17143	134.04868130489	1
7	17158	134.14884130489	1
7	17169	134.24900130489	1
7	17180	134.34916130489	1
7	17191	134.44932130489	1
7	17204	134.54948130489	1
7	17215	134.64964130489	1
7	17226	134.74980130489	1
7	17237	134.84996130489	1
7	17253	134.95012130489	1
7	17263	135.05028130489	1
7	17285	135.175041545182	1
7	17300	135.275201545182	1
7	17315	135.375361545182	1
7	17332	135.475521545182	1
7	17347	135.575681545182	1
7	17360	135.675841545182	1
7	17371	135.776001545182	1
7	17384	135.876161545182	1
7	17397	135.976321545182	1
7	17410	136.076481545182	1
7	17425	136.176641545182	1
7	17442	136.276801545182	1
7	17455	136.376961545182	1
7	17468	136.477121545182	1
7	17483	136.577281545182	1
7	17496	136.677441545182	1
7	17509	136.777601545182	1
7	17520	136.877761545182	1
7	17531	136.977921545182	1
7	17544	137.078081545182	1
7	17557	137.178241545182	1
7	17570	137.278401545182	1
7	17583	137.378561545182	1
7	17596	137.478721545182	1
7	17613	137.578881545182	1
7	17624	137.679041545182	1
7	17639	137.779201545182	1
7	17650	137.879361545182	1
7	17665	137.979521545182	1
7	17680	138.079681545182	1
7	17695	138.179841545182	1
7	17708	138.280001545182	1
7	17721	138.380161545182	1
7	17736	138.480321545182	1
7	17749	138.580481545182	1
7	17764	138.680641545182	1
7	17777	138.780801545182	1
7	17790	138.880961545182	1
7	17805	138.981121545182	1
7	17816	139.081281545182	1
7	17827	139.181441545182	1
7	17840	139.281601545182	1
7	17851	139.381761545182	1
7	17862	139.481921545182	1
7	17877	139.582081545182	1
7	17890	139.682241545182	1
7	17901	139.782401545182	1
7	17914	139.882561545182	1
7	17925	139.982721545182	1
7	17942	140.082881545182	1
7	17955	140.183041545182	1
7	17966	140.283201545182	1
7	17977	140.383361545182	1
7	17992	140.483521545182	1
7	18003	140.583681545182	1
7	18014	140.683841545182	1
7	18027	140.784001545182	1
7	18040	140.884161545182	1
7	18051	140.984321545182	1
7	18066	141.084481545182	1
7	18077	141.184641545182	1
7	18088	141.284801545182	1
7	18099	141.384961545182	1
7	18110	141.485121545182	1
7	18125	141.585281545182	1
7	18140	141.685441545182	1
7	18151	141.785601545182	1
7	18166	141.885761545182	1
7	18177	141.985921545182	1
7	18190	142.086081545182	1
7	18201	142.186241545182	1
7	18214	142.286401545182	1
7	18229	142.386561545182	1
7	18242	142.486721545182	1
7	18259	142.586881545182	1
7	18280	142.687041545182	1
7	18301	142.787201545182	1
7	18318	142.887361545182	1
7	18329	142.987521545182	1
7	18342	143.087681545182	1
7	18359	143.187841545182	1
7	18372	143.288001545182	1
7	18383	143.388161545182	1
7	18396	143.488321545182	1
7	18409	143.588481545182	1
7	18420	143.688641545182	1
7	18431	143.788801545182	1
7	18446	143.888961545182	1
7	18457	143.989121545182	1
7	18468	144.089281545182	1
7	18487	144.189441545182	1
7	18498	144.289601545182	1
7	18513	144.389761545182	1
7	18528	144.489921545182	1
7	18545	144.590081545182	1
7	18556	144.690241545182	1
7	18571	144.790401545182	1
7	18582	144.890561545182	1
7	18597	144.990721545182	1
7	18608	145.090881545182	1
7	18619	145.191041545182	1
7	18638	145.291201545182	1
7	18649	145.391361545182	1
7	18660	145.491521545182	1
7	18677	145.591681545182	1
7	18688	145.691841545182	1
7	18701	145.792001545182	1
7	18712	145.892161545182	1
7	18723	145.992321545182	1
7	18736	146.092481545182	1
7	18749	146.192641545182	1
7	18764	146.292801545182	1
7	18775	146.392961545182	1
7	18786	146.493121545182	1
7	18797	146.593281545182	1
7	18810	146.693441545182	1
7	18821	146.793601545182	1
7	18832	146.893761545182	1
7	18845	146.993921545182	1
7	18858	147.094081545182	1
7	18871	147.194241545182	1
7	18886	147.294401545182	1
7	18899	147.394561545182	1
7	18914	147.494721545182	1
7	18929	147.594881545182	1
7	18946	147.695041545182	1
7	18961	147.795201545182	1
7	18974	147.895361545182	1
7	18989	147.995521545182	1
7	19004	148.095681545182	1
7	19015	148.195841545182	1
7	19030	148.296001545182	1
7	19049	148.396161545182	1
7	19062	148.496321545182	1
7	19073	148.596481545182	1
7	19084	148.696641545182	1
7	19095	148.796801545182	1
7	19108	148.896961545182	1
7	19123	148.997121545182	1
7	19138	149.097281545182	1
7	19151	149.197441545182	1
7	19168	149.297601545182	1
7	19181	149.397761545182	1
7	19192	149.497921545182	1
7	19203	149.598081545182	1
7	19216	149.698241545182	1
7	19227	149.798401545182	1
7	19238	149.898561545182	1
7	19251	149.998721545182	1
7	19262	150.098881545182	1
7	19275	150.199041545182	1
7	19288	150.299201545182	1
7	19299	150.399361545182	1
7	19310	150.499521545182	1
7	19325	150.599681545182	1
7	19338	150.699841545182	1
7	19349	150.800001545182	1
7	19364	150.900161545182	1
7	19375	151.000321545182	1
7	19388	151.100481545182	1
7	19403	151.200641545182	1
7	19414	151.300801545182	1
7	19425	151.400961545182	1
7	19440	151.501121545182	1
7	19453	151.601281545182	1
7	19464	151.701441545182	1
7	19475	151.801601545182	1
7	19490	151.901761545182	1
7	19503	152.001921545182	1
7	19514	152.102081545182	1
7	19525	152.202241545182	1
7	19542	152.302401545182	1
7	19561	152.402561545182	1
7	19572	152.502721545182	1
7	19583	152.602881545182	1
7	19594	152.703041545182	1
7	19609	152.803201545182	1
7	19622	152.903361545182	1
7	19633	153.003521545182	1
7	19646	153.103681545182	1
7	19659	153.203841545182	1
7	19674	153.304001545182	1
7	19687	153.404161545182	1
7	19702	153.504321545182	1
7	19715	153.604481545182	1
7	19726	153.704641545182	1
7	19739	153.804801545182	1
7	19750	153.904961545182	1
7	19763	154.005121545182	1
7	19774	154.105281545182	1
7	19785	154.205441545182	1
7	19798	154.305601545182	1
7	19809	154.405761545182	1
7	19822	154.505921545182	1
7	19833	154.606081545182	1
7	19844	154.706241545182	1
7	19855	154.806401545182	1
7	19866	154.906561545182	1
7	19881	155.006721545182	1
7	19894	155.106881545182	1
7	19905	155.207041545182	1
7	19918	155.307201545182	1
7	19929	155.407361545182	1
7	19940	155.507521545182	1
7	19955	155.607681545182	1
7	19966	155.707841545182	1
7	19979	155.808001545182	1
7	19992	155.908161545182	1
7	20007	156.008321545182	1
7	20020	156.108481545182	1
7	20035	156.208641545182	1
7	20050	156.308801545182	1
7	20061	156.408961545182	1
7	20074	156.509121545182	1
7	20085	156.609281545182	1
7	20098	156.709441545182	1
7	20109	156.809601545182	1
7	20124	156.909761545182	1
7	20141	157.009921545182	1
7	20156	157.110081545182	1
7	20167	157.210241545182	1
7	20180	157.310401545182	1
7	20193	157.410561545182	1
7	20204	157.510721545182	1
7	20221	157.610881545182	1
7	20232	157.711041545182	1
7	20243	157.811201545182	1
7	20254	157.911361545182	1
7	20269	158.011521545182	1
7	20282	158.111681545182	1
7	20293	158.211841545182	1
7	20308	158.312001545182	1
7	20321	158.412161545182	1
7	20332	158.512321545182	1
7	20347	158.612481545182	1
7	20358	158.712641545182	1
7	20369	158.812801545182	1
7	20380	158.912961545182	1
7	20395	159.013121545182	1
7	20408	159.113281545182	1
7	20427	159.213441545182	1
7	20444	159.313601545182	1
7	20455	159.413761545182	1
7	20468	159.513921545182	1
7	20481	159.614081545182	1
7	20498	159.714241545182	1
7	20511	159.814401545182	1
7	20522	159.914561545182	1
7	20533	160.014721545182	1
7	20548	160.114881545182	1
7	20559	160.215041545182	1
7	20572	160.315201545182	1
7	20583	160.415361545182	1
7	20594	160.515521545182	1
7	20607	160.615681545182	1
7	20620	160.715841545182	1
7	20631	160.816001545182	1
7	20642	160.916161545182	1
7	20659	161.016321545182	1
7	20670	161.116481545182	1
7	20681	161.216641545182	1
7	20696	161.316801545182	1
7	20709	161.416961545182	1
7	20724	161.517121545182	1
7	20743	161.617281545182	1
7	20756	161.717441545182	1
7	20767	161.817601545182	1
7	20780	161.917761545182	1
7	20793	162.017921545182	1
7	20806	162.118081545182	1
7	20819	162.218241545182	1
7	20832	162.318401545182	1
7	20845	162.418561545182	1
7	20858	162.518721545182	1
7	20869	162.618881545182	1
7	20884	162.719041545182	1
7	20895	162.819201545182	1
7	20906	162.919361545182	1
7	20919	163.019521545182	1
7	20934	163.119681545182	1
7	20947	163.219841545182	1
7	20958	163.320001545182	1
7	20969	163.420161545182	1
7	20982	163.520321545182	1
7	20995	163.620481545182	1
7	21008	163.720641545182	1
7	21023	163.820801545182	1
7	21036	163.920961545182	1
7	21049	164.021121545182	1
7	21066	164.121281545182	1
7	21077	164.221441545182	1
7	21090	164.321601545182	1
7	21111	164.421761545182	1
7	21124	164.521921545182	1
7	21141	164.622081545182	1
7	21152	164.722241545182	1
7	21165	164.822401545182	1
7	21178	164.922561545182	1
7	21191	165.022721545182	1
7	21204	165.122881545182	1
7	21223	165.223041545182	1
7	21244	165.323201545182	1
7	21257	165.423361545182	1
7	21268	165.523521545182	1
7	21283	165.623681545182	1
7	21296	165.723841545182	1
7	21309	165.824001545182	1
7	21320	165.924161545182	1
7	21333	166.024321545182	1
7	21346	166.124481545182	1
7	21359	166.224641545182	1
7	21376	166.324801545182	1
7	21389	166.424961545182	1
7	21402	166.525121545182	1
7	21415	166.625281545182	1
7	21428	166.725441545182	1
7	21441	166.825601545182	1
7	21452	166.925761545182	1
7	21465	167.025921545182	1
7	21478	167.126081545182	1
7	21491	167.226241545182	1
7	21506	167.326401545182	1
7	21521	167.426561545182	1
7	21532	167.526721545182	1
7	21543	167.626881545182	1
7	21562	167.727041545182	1
7	21575	167.827201545182	1
7	21588	167.927361545182	1
7	21603	168.027521545182	1
7	21616	168.127681545182	1
7	21631	168.227841545182	1
7	21642	168.328001545182	1
7	21657	168.428161545182	1
7	21670	168.528321545182	1
7	21683	168.628481545182	1
7	21696	168.728641545182	1
7	21709	168.828801545182	1
7	21722	168.928961545182	1
7	21733	169.029121545182	1
7	21746	169.129281545182	1
7	21757	169.229441545182	1
7	21770	169.329601545182	1
7	21783	169.429761545182	1
7	21796	169.529921545182	1
7	21811	169.630081545182	1
7	21824	169.730241545182	1
7	21837	169.830401545182	1
7	21852	169.930561545182	1
7	21863	170.030721545182	1
7	21876	170.130881545182	1
7	21887	170.231041545182	1
7	21898	170.331201545182	1
7	21909	170.431361545182	1
7	21922	170.531521545182	1
7	21935	170.631681545182	1
7	21946	170.731841545182	1
7	21961	170.832001545182	1
7	21974	170.932161545182	1
7	21987	171.032321545182	1
7	22000	171.132481545182	1
7	22011	171.232641545182	1
7	22024	171.332801545182	1
7	22037	171.432961545182	1
7	22050	171.533121545182	1
7	22061	171.633281545182	1
7	22076	171.733441545182	1
7	22087	171.833601545182	1
7	22100	171.933761545182	1
7	22117	172.033921545182	1
7	22132	172.134081545182	1
7	22145	172.234241545182	1
7	22156	172.334401545182	1
7	22167	172.434561545182	1
7	22182	172.534721545182	1
7	22193	172.634881545182	1
7	22204	172.735041545182	1
7	22217	172.835201545182	1
7	22232	172.935361545182	1
7	22245	173.035521545182	1
7	22260	173.135681545182	1
7	22275	173.235841545182	1
7	22286	173.336001545182	1
7	22297	173.436161545182	1
7	22308	173.536321545182	1
7	22323	173.636481545182	1
7	22342	173.736641545182	1
7	22353	173.836801545182	1
7	22366	173.936961545182	1
7	22379	174.037121545182	1
7	22392	174.137281545182	1
7	22403	174.237441545182	1
7	22416	174.337601545182	1
7	22427	174.437761545182	1
7	22442	174.537921545182	1
7	22455	174.638081545182	1
7	22470	174.738241545182	1
7	22483	174.838401545182	1
7	22496	174.938561545182	1
7	22509	175.038721545182	1
7	22524	175.138881545182	1
7	22537	175.239041545182	1
7	22550	175.339201545182	1
7	22565	175.439361545182	1
7	22580	175.539521545182	1
7	22591	175.639681545182	1
7	22604	175.739841545182	1
7	22615	175.840001545182	1
7	22626	175.940161545182	1
7	22637	176.040321545182	1
7	22650	176.140481545182	1
7	22663	176.240641545182	1
7	22676	176.340801545182	1
7	22693	176.440961545182	1
7	22706	176.541121545182	1
7	22721	176.641281545182	1
7	22732	176.741441545182	1
7	22747	176.841601545182	1
7	22758	176.941761545182	1
7	22771	177.041921545182	1
7	22786	177.142081545182	1
7	22799	177.242241545182	1
7	22810	177.342401545182	1
7	22823	177.442561545182	1
7	22834	177.542721545182	1
7	22845	177.642881545182	1
7	22858	177.743041545182	1
7	22869	177.843201545182	1
7	22882	177.943361545182	1
7	22893	178.043521545182	1
7	22908	178.143681545182	1
7	22919	178.243841545182	1
7	22930	178.344001545182	1
7	22941	178.444161545182	1
7	22952	178.544321545182	1
7	22963	178.644481545182	1
7	22976	178.744641545182	1
7	22987	178.844801545182	1
7	23002	178.944961545182	1
7	23017	179.045121545182	1
7	23032	179.145281545182	1
7	23047	179.245441545182	1
7	23062	179.345601545182	1
7	23077	179.445761545182	1
7	23090	179.545921545182	1
7	23103	179.646081545182	1
7	23114	179.746241545182	1
7	23127	179.846401545182	1
7	23138	179.946561545182	1
7	23151	180.046721545182	1
7	23164	180.146881545182	1
7	23175	180.247041545182	1
7	23190	180.347201545182	1
7	23205	180.447361545182	1
7	23216	180.547521545182	1
7	23229	180.647681545182	1
7	23240	180.747841545182	1
7	23253	180.848001545182	1
7	23266	180.948161545182	1
7	23281	181.048321545182	1
7	23298	181.148481545182	1
7	23311	181.248641545182	1
7	23322	181.348801545182	1
7	23337	181.448961545182	1
7	23348	181.549121545182	1
7	23359	181.649281545182	1
7	23372	181.749441545182	1
7	23387	181.849601545182	1
7	23398	181.949761545182	1
7	23409	182.049921545182	1
7	23424	182.150081545182	1
7	23439	182.250241545182	1
7	23450	182.350401545182	1
7	23467	182.450561545182	1
7	23478	182.550721545182	1
7	23491	182.650881545182	1
7	23502	182.751041545182	1
7	23519	182.851201545182	1
7	23530	182.951361545182	1
7	23541	183.051521545182	1
7	23552	183.151681545182	1
7	23567	183.251841545182	1
7	23582	183.352001545182	1
7	23593	183.452161545182	1
7	23606	183.552321545182	1
7	23619	183.652481545182	1
7	23632	183.752641545182	1
7	23645	183.852801545182	1
7	23662	183.952961545182	1
7	23673	184.053121545182	1
7	23684	184.153281545182	1
7	23695	184.253441545182	1
7	23706	184.353601545182	1
7	23719	184.453761545182	1
7	23732	184.553921545182	1
7	23747	184.654081545182	1
7	23758	184.754241545182	1
7	23769	184.854401545182	1
7	23782	184.954561545182	1
7	23795	185.054721545182	1
7	23808	185.154881545182	1
7	23821	185.255041545182	1
7	23838	185.355201545182	1
7	23849	185.455361545182	1
7	23860	185.555521545182	1
7	23875	185.655681545182	1
7	23888	185.755841545182	1
7	23901	185.856001545182	1
7	23914	185.956161545182	1
7	23925	186.056321545182	1
7	23938	186.156481545182	1
7	23955	186.256641545182	1
7	23966	186.356801545182	1
7	23977	186.456961545182	1
7	23988	186.557121545182	1
7	24001	186.657281545182	1
7	24014	186.757441545182	1
7	24027	186.857601545182	1
7	24042	186.957761545182	1
7	24053	187.057921545182	1
7	24066	187.158081545182	1
7	24081	187.258241545182	1
7	24096	187.358401545182	1
7	24107	187.458561545182	1
7	24124	187.558721545182	1
7	24137	187.658881545182	1
7	24148	187.759041545182	1
7	24161	187.859201545182	1
7	24174	187.959361545182	1
7	24189	188.059521545182	1
7	24200	188.159681545182	1
7	24211	188.259841545182	1
7	24226	188.360001545182	1
7	24237	188.460161545182	1
7	24248	188.560321545182	1
7	24259	188.660481545182	1
7	24270	188.760641545182	1
7	24287	188.860801545182	1
7	24298	188.960961545182	1
7	24311	189.061121545182	1
7	24326	189.161281545182	1
7	24337	189.261441545182	1
7	24352	189.361601545182	1
7	24369	189.461761545182	1
7	24382	189.561921545182	1
7	24395	189.662081545182	1
7	24408	189.762241545182	1
7	24419	189.862401545182	1
7	24430	189.962561545182	1
7	24441	190.062721545182	1
7	24456	190.162881545182	1
7	24469	190.263041545182	1
7	24482	190.363201545182	1
7	24499	190.463361545182	1
7	24510	190.563521545182	1
7	24523	190.663681545182	1
7	24536	190.763841545182	1
7	24547	190.864001545182	1
7	24560	190.964161545182	1
7	24575	191.064321545182	1
7	24588	191.164481545182	1
7	24599	191.264641545182	1
7	24610	191.364801545182	1
7	24623	191.464961545182	1
7	24634	191.565121545182	1
7	24645	191.665281545182	1
7	24656	191.765441545182	1
7	24671	191.865601545182	1
7	24682	191.965761545182	1
7	24693	192.065921545182	1
7	24708	192.166081545182	1
7	24723	192.266241545182	1
7	24738	192.366401545182	1
7	24753	192.466561545182	1
7	24766	192.566721545182	1
7	24779	192.666881545182	1
7	24792	192.767041545182	1
7	24803	192.867201545182	1
7	24816	192.967361545182	1
7	24829	193.067521545182	1
7	24840	193.167681545182	1
7	24853	193.267841545182	1
7	24868	193.368001545182	1
7	24883	193.468161545182	1
7	24894	193.568321545182	1
7	24909	193.668481545182	1
7	24924	193.768641545182	1
7	24935	193.868801545182	1
7	24948	193.968961545182	1
7	24965	194.069121545182	1
7	24976	194.169281545182	1
7	24987	194.269441545182	1
7	24998	194.369601545182	1
7	25013	194.469761545182	1
7	25026	194.569921545182	1
7	25043	194.670081545182	1
7	25056	194.770241545182	1
7	25067	194.870401545182	1
7	25080	194.970561545182	1
7	25091	195.070721545182	1
7	25104	195.170881545182	1
7	25117	195.271041545182	1
7	25132	195.371201545182	1
7	25143	195.471361545182	1
7	25154	195.571521545182	1
7	25165	195.671681545182	1
7	25178	195.771841545182	1
7	25189	195.872001545182	1
7	25202	195.972161545182	1
7	25215	196.072321545182	1
7	25230	196.172481545182	1
7	25241	196.272641545182	1
7	25252	196.372801545182	1
7	25263	196.472961545182	1
7	25274	196.573121545182	1
7	25285	196.673281545182	1
7	25296	196.773441545182	1
7	25307	196.873601545182	1
7	25318	196.973761545182	1
7	25331	197.073921545182	1
7	25346	197.174081545182	1
7	25359	197.274241545182	1
7	25376	197.374401545182	1
7	25387	197.474561545182	1
7	25405	197.574721545182	1
7	25417	197.674881545182	1
7	25430	197.775041545182	1
7	25443	197.875201545182	1
7	25456	197.975361545182	1
7	25467	198.075521545182	1
7	25482	198.175681545182	1
7	25493	198.275841545182	1
7	25508	198.376001545182	1
7	25521	198.476161545182	1
7	25534	198.576321545182	1
7	25547	198.676481545182	1
7	25560	198.776641545182	1
7	25571	198.876801545182	1
7	25582	198.976961545182	1
7	25595	199.077121545182	1
7	25608	199.177281545182	1
7	25623	199.277441545182	1
7	25634	199.377601545182	1
7	25647	199.477761545182	1
7	25660	199.577921545182	1
7	25671	199.678081545182	1
7	25686	199.778241545182	1
7	25701	199.878401545182	1
7	25712	199.978561545182	1

